version 2
run General-0-20171004-19:03:13-6772
attr configname General
attr datetime 20171004-19:03:13
attr experiment General
attr inifile omnetpp.ini
attr iterationvars ""
attr iterationvars2 $repetition=0
attr measurement ""
attr network recording.testForGreedy.GreedyBasicTest
attr processid 6772
attr repetition 0
attr replication #0
attr resultdir results
attr runnumber 0
attr seedset 0
param **.n_hosts 10
param **.wlan[*].bitrate 2Mbps
param **.wlan[*].mac.address "\"auto\""
param **.wlan[*].mac.headerLength 20B
param **.wlan[*].radio.transmitter.detectionRange 0m
param **.wlan[*].radio.transmitter.headerBitLength 0b
param **.wlan[*].radio.transmitter.interferenceRange 0m
param **.wlan[*].radioType "\"IdealRadio\""
param **.wlan[*].typename "\"IdealWirelessNic\""
param **.wlan[0].radio.receiver.ignoreInterference true
param *.host*.networkLayer.arpType "\"GlobalARP\""
param *.host*.wlan[0].mac.fullDuplex false
param *.host*.wlan[0].mac.useAck false
param *.host*.wlan[0].radio.displayCommunicationRange true
param *.host*.wlan[0].typename "\"IdealWirelessNic\""
param *.host0.numUdpApps 1
param *.host0.udpApp[0].destAddresses "\"host5\""
param *.host0.udpApp[0].destPort 5000
param *.host0.udpApp[0].messageLength 1000B
param *.host0.udpApp[0].packetName "\"UDPData\""
param *.host0.udpApp[0].sendInterval exponential(12ms)
param *.host0.udpApp[0].typename "\"UDPBasicApp\""
param *.host0.wlan[*].radio.transmitter.communicationRange 200m
param *.host1.mobility.angle 0deg
param *.host1.mobilityType "\"LinearMobility\""
param *.host1.wlan[*].radio.transmitter.communicationRange 200m
param *.host2.wlan[*].radio.transmitter.communicationRange 200m
param *.host3.wlan[*].radio.transmitter.communicationRange 200m
param *.host5.numUdpApps 1
param *.host5.udpApp[0].localPort 5000
param *.host5.udpApp[0].typename "\"UDPSink\""
param *.host5.wlan[*].radio.transmitter.communicationRange 200m
param *.integratedCanvasVisualizer.dataLinkVisualizer.packetNameFilter "\"UDPData*\""
param *.integratedCanvasVisualizer.mediumVisualizer.displaySignals true
param *.integratedCanvasVisualizer.mobilityVisualizer.displayMovementTrail true
param *.integratedCanvasVisualizer.physicalLinkVisualizer.packetNameFilter "\"UDPData*\""

vector 15  GreedyBasicTest.host0.wlan[0].queue  queueLength:vector  ETV
attr interpolationmode  sample-hold
attr title  "queue length, vector"
vector 30  GreedyBasicTest.host1.wlan[0].queue  queueLength:vector  ETV
attr interpolationmode  sample-hold
attr title  "queue length, vector"
vector 45  GreedyBasicTest.host2.wlan[0].queue  queueLength:vector  ETV
attr interpolationmode  sample-hold
attr title  "queue length, vector"
vector 60  GreedyBasicTest.host3.wlan[0].queue  queueLength:vector  ETV
attr interpolationmode  sample-hold
attr title  "queue length, vector"
vector 83  GreedyBasicTest.host5.wlan[0].queue  queueLength:vector  ETV
attr interpolationmode  sample-hold
attr title  "queue length, vector"
vector 21  GreedyBasicTest.host0.wlan[0].radio  radioMode:vector  ETV
attr interpolationmode  sample-hold
attr source  radioModeChanged
attr title  "Radio mode, vector"
vector 36  GreedyBasicTest.host1.wlan[0].radio  radioMode:vector  ETV
attr interpolationmode  sample-hold
attr source  radioModeChanged
attr title  "Radio mode, vector"
vector 51  GreedyBasicTest.host2.wlan[0].radio  radioMode:vector  ETV
attr interpolationmode  sample-hold
attr source  radioModeChanged
attr title  "Radio mode, vector"
vector 66  GreedyBasicTest.host3.wlan[0].radio  radioMode:vector  ETV
attr interpolationmode  sample-hold
attr source  radioModeChanged
attr title  "Radio mode, vector"
vector 89  GreedyBasicTest.host5.wlan[0].radio  radioMode:vector  ETV
attr interpolationmode  sample-hold
attr source  radioModeChanged
attr title  "Radio mode, vector"
vector 22  GreedyBasicTest.host0.wlan[0].radio  receptionState:vector  ETV
attr interpolationmode  sample-hold
attr source  receptionStateChanged
attr title  "Radio reception state, vector"
vector 37  GreedyBasicTest.host1.wlan[0].radio  receptionState:vector  ETV
attr interpolationmode  sample-hold
attr source  receptionStateChanged
attr title  "Radio reception state, vector"
vector 52  GreedyBasicTest.host2.wlan[0].radio  receptionState:vector  ETV
attr interpolationmode  sample-hold
attr source  receptionStateChanged
attr title  "Radio reception state, vector"
vector 67  GreedyBasicTest.host3.wlan[0].radio  receptionState:vector  ETV
attr interpolationmode  sample-hold
attr source  receptionStateChanged
attr title  "Radio reception state, vector"
vector 90  GreedyBasicTest.host5.wlan[0].radio  receptionState:vector  ETV
attr interpolationmode  sample-hold
attr source  receptionStateChanged
attr title  "Radio reception state, vector"
vector 1  GreedyBasicTest.host0.udpApp[0]  sentPk:vector(packetBytes)  ETV
attr interpolationmode  none
attr source  sentPk
attr title  "packets sent, vector(packetBytes)"
vector 4  GreedyBasicTest.host0.udp  sentPk:vector(packetBytes)  ETV
attr interpolationmode  none
attr source  sentPk
attr title  "packets sent, vector(packetBytes)"
vector 12  GreedyBasicTest.host0.wlan[0].queue  rcvdPk:vector(packetBytes)  ETV
attr interpolationmode  none
attr title  "received packets, vector(packetBytes)"
vector 14  GreedyBasicTest.host0.wlan[0].queue  queueingTime:vector  ETV
attr interpolationmode  none
attr title  "queueing time, vector"
vector 18  GreedyBasicTest.host0.wlan[0].mac  rcvdPkFromHL:vector(packetBytes)  ETV
attr interpolationmode  none
attr source  packetReceivedFromUpper
attr title  "packets received from higher layer, vector(packetBytes)"
vector 23  GreedyBasicTest.host0.wlan[0].radio  transmissionState:vector  ETV
attr interpolationmode  sample-hold
attr source  transmissionStateChanged
attr title  "Radio transmission state, vector"
vector 17  GreedyBasicTest.host0.wlan[0].mac  sentDownPk:vector(packetBytes)  ETV
attr interpolationmode  none
attr source  packetSentToLower
attr title  "packets sent to lower layer, vector(packetBytes)"
vector 34  GreedyBasicTest.host1.wlan[0].mac  rcvdPkFromLL:vector(packetBytes)  ETV
attr interpolationmode  none
attr source  packetReceivedFromLower
attr title  "packets received from lower layer, vector(packetBytes)"
vector 31  GreedyBasicTest.host1.wlan[0].mac  passedUpPk:vector(packetBytes)  ETV
attr interpolationmode  none
attr source  packetSentToUpper
attr title  "packets passed to higher layer, vector(packetBytes)"
vector 80  GreedyBasicTest.host5.wlan[0].queue  rcvdPk:vector(packetBytes)  ETV
attr interpolationmode  none
attr title  "received packets, vector(packetBytes)"
vector 82  GreedyBasicTest.host5.wlan[0].queue  queueingTime:vector  ETV
attr interpolationmode  none
attr title  "queueing time, vector"
vector 86  GreedyBasicTest.host5.wlan[0].mac  rcvdPkFromHL:vector(packetBytes)  ETV
attr interpolationmode  none
attr source  packetReceivedFromUpper
attr title  "packets received from higher layer, vector(packetBytes)"
vector 91  GreedyBasicTest.host5.wlan[0].radio  transmissionState:vector  ETV
attr interpolationmode  sample-hold
attr source  transmissionStateChanged
attr title  "Radio transmission state, vector"
vector 85  GreedyBasicTest.host5.wlan[0].mac  sentDownPk:vector(packetBytes)  ETV
attr interpolationmode  none
attr source  packetSentToLower
attr title  "packets sent to lower layer, vector(packetBytes)"
vector 64  GreedyBasicTest.host3.wlan[0].mac  rcvdPkFromLL:vector(packetBytes)  ETV
attr interpolationmode  none
attr source  packetReceivedFromLower
attr title  "packets received from lower layer, vector(packetBytes)"
vector 61  GreedyBasicTest.host3.wlan[0].mac  passedUpPk:vector(packetBytes)  ETV
attr interpolationmode  none
attr source  packetSentToUpper
attr title  "packets passed to higher layer, vector(packetBytes)"
vector 57  GreedyBasicTest.host3.wlan[0].queue  rcvdPk:vector(packetBytes)  ETV
attr interpolationmode  none
attr title  "received packets, vector(packetBytes)"
vector 59  GreedyBasicTest.host3.wlan[0].queue  queueingTime:vector  ETV
attr interpolationmode  none
attr title  "queueing time, vector"
vector 63  GreedyBasicTest.host3.wlan[0].mac  rcvdPkFromHL:vector(packetBytes)  ETV
attr interpolationmode  none
attr source  packetReceivedFromUpper
attr title  "packets received from higher layer, vector(packetBytes)"
vector 68  GreedyBasicTest.host3.wlan[0].radio  transmissionState:vector  ETV
attr interpolationmode  sample-hold
attr source  transmissionStateChanged
attr title  "Radio transmission state, vector"
vector 62  GreedyBasicTest.host3.wlan[0].mac  sentDownPk:vector(packetBytes)  ETV
attr interpolationmode  none
attr source  packetSentToLower
attr title  "packets sent to lower layer, vector(packetBytes)"
vector 49  GreedyBasicTest.host2.wlan[0].mac  rcvdPkFromLL:vector(packetBytes)  ETV
attr interpolationmode  none
attr source  packetReceivedFromLower
attr title  "packets received from lower layer, vector(packetBytes)"
vector 46  GreedyBasicTest.host2.wlan[0].mac  passedUpPk:vector(packetBytes)  ETV
attr interpolationmode  none
attr source  packetSentToUpper
attr title  "packets passed to higher layer, vector(packetBytes)"
vector 87  GreedyBasicTest.host5.wlan[0].mac  rcvdPkFromLL:vector(packetBytes)  ETV
attr interpolationmode  none
attr source  packetReceivedFromLower
attr title  "packets received from lower layer, vector(packetBytes)"
vector 84  GreedyBasicTest.host5.wlan[0].mac  passedUpPk:vector(packetBytes)  ETV
attr interpolationmode  none
attr source  packetSentToUpper
attr title  "packets passed to higher layer, vector(packetBytes)"
vector 27  GreedyBasicTest.host1.wlan[0].queue  rcvdPk:vector(packetBytes)  ETV
attr interpolationmode  none
attr title  "received packets, vector(packetBytes)"
vector 29  GreedyBasicTest.host1.wlan[0].queue  queueingTime:vector  ETV
attr interpolationmode  none
attr title  "queueing time, vector"
vector 33  GreedyBasicTest.host1.wlan[0].mac  rcvdPkFromHL:vector(packetBytes)  ETV
attr interpolationmode  none
attr source  packetReceivedFromUpper
attr title  "packets received from higher layer, vector(packetBytes)"
vector 38  GreedyBasicTest.host1.wlan[0].radio  transmissionState:vector  ETV
attr interpolationmode  sample-hold
attr source  transmissionStateChanged
attr title  "Radio transmission state, vector"
vector 32  GreedyBasicTest.host1.wlan[0].mac  sentDownPk:vector(packetBytes)  ETV
attr interpolationmode  none
attr source  packetSentToLower
attr title  "packets sent to lower layer, vector(packetBytes)"
vector 19  GreedyBasicTest.host0.wlan[0].mac  rcvdPkFromLL:vector(packetBytes)  ETV
attr interpolationmode  none
attr source  packetReceivedFromLower
attr title  "packets received from lower layer, vector(packetBytes)"
vector 16  GreedyBasicTest.host0.wlan[0].mac  passedUpPk:vector(packetBytes)  ETV
attr interpolationmode  none
attr source  packetSentToUpper
attr title  "packets passed to higher layer, vector(packetBytes)"
vector 42  GreedyBasicTest.host2.wlan[0].queue  rcvdPk:vector(packetBytes)  ETV
attr interpolationmode  none
attr title  "received packets, vector(packetBytes)"
vector 44  GreedyBasicTest.host2.wlan[0].queue  queueingTime:vector  ETV
attr interpolationmode  none
attr title  "queueing time, vector"
vector 48  GreedyBasicTest.host2.wlan[0].mac  rcvdPkFromHL:vector(packetBytes)  ETV
attr interpolationmode  none
attr source  packetReceivedFromUpper
attr title  "packets received from higher layer, vector(packetBytes)"
vector 53  GreedyBasicTest.host2.wlan[0].radio  transmissionState:vector  ETV
attr interpolationmode  sample-hold
attr source  transmissionStateChanged
attr title  "Radio transmission state, vector"
vector 47  GreedyBasicTest.host2.wlan[0].mac  sentDownPk:vector(packetBytes)  ETV
attr interpolationmode  none
attr source  packetSentToLower
attr title  "packets sent to lower layer, vector(packetBytes)"
1	21	0.022315250545	1000
1	25	0.026135524235	1000
1	28	0.033928880414	1000
1	31	0.053995414818	1000
1	34	0.061842005625	1000
1	37	0.067828469733	1000
1	40	0.089528900904	1000
1	43	0.094467836859	1000
1	46	0.107003186959	1000
1	49	0.112514164606	1000
1	52	0.15031620375	1000
1	55	0.152130973994	1000
1	58	0.176621680585	1000
1	61	0.184322190657	1000
1	64	0.203690215556	1000
1	67	0.21250978861	1000
1	70	0.226141055911	1000
1	73	0.241443788338	1000
1	76	0.251911642679	1000
1	79	0.261161658581	1000
1	82	0.278218034742	1000
1	85	0.27956138867	1000
1	88	0.287261725094	1000
1	91	0.289736164478	1000
1	94	0.305759646693	1000
1	97	0.308688228582	1000
1	100	0.31043156491	1000
1	103	0.315132814638	1000
1	106	0.317078452511	1000
1	109	0.320095755696	1000
1	112	0.325958440288	1000
1	115	0.353905400779	1000
1	118	0.361078353701	1000
1	121	0.372472288703	1000
1	124	0.400388501443	1000
1	127	0.401643236152	1000
1	130	0.443645800365	1000
1	133	0.456351809943	1000
1	136	0.458600922735	1000
1	139	0.463921771078	1000
1	142	0.480590283355	1000
1	145	0.491823022072	1000
1	148	0.49654037276	1000
1	151	0.497010570637	1000
1	154	0.509081022699	1000
1	157	0.547396382404	1000
1	160	0.560090299364	1000
1	163	0.572186530309	1000
1	166	0.636507734512	1000
1	169	0.646970724756	1000
1	172	0.653391500881	1000
1	175	0.6611168729	1000
1	178	0.672839241789	1000
1	181	0.677789256548	1000
1	184	0.691267276166	1000
1	187	0.695845946286	1000
1	190	0.713925570285	1000
1	193	0.749771848987	1000
1	196	0.762807081558	1000
1	199	0.762971056499	1000
1	202	0.774672279709	1000
1	205	0.788110052098	1000
1	208	0.830993112566	1000
1	211	0.856256968176	1000
1	214	0.864807971296	1000
1	217	0.865495894413	1000
1	220	0.872695257053	1000
1	223	0.872937538591	1000
1	226	0.879932079257	1000
1	229	0.926630920731	1000
1	232	0.931975954274	1000
1	235	0.939843709686	1000
1	238	0.953846192005	1000
1	241	0.979337038369	1000
1	244	1.009383979766	1000
1	247	1.012316725143	1000
1	250	1.022310847336	1000
1	253	1.046349733606	1000
1	256	1.054884708853	1000
1	259	1.084711697137	1000
1	262	1.115195351233	1000
1	265	1.116236597021	1000
1	268	1.120140682007	1000
1	271	1.120253491015	1000
1	274	1.142421422827	1000
1	277	1.154922790677	1000
1	280	1.177018180335	1000
1	283	1.18070839302	1000
1	286	1.186794794499	1000
1	289	1.196452363297	1000
1	292	1.198615390321	1000
1	295	1.204156161074	1000
1	298	1.206056259149	1000
1	301	1.216173255535	1000
1	304	1.230771359376	1000
1	307	1.234855520235	1000
1	310	1.241670370077	1000
1	313	1.258602662989	1000
1	316	1.264654788668	1000
1	319	1.291819591578	1000
1	322	1.304043496338	1000
1	325	1.33070157912	1000
1	328	1.344376874682	1000
1	331	1.351533427414	1000
1	334	1.397649506413	1000
1	337	1.399131826181	1000
1	340	1.416613648884	1000
1	343	1.422982318843	1000
1	346	1.436485703045	1000
1	349	1.439934628758	1000
1	352	1.444443494867	1000
1	355	1.484815940304	1000
1	358	1.495470277229	1000
1	361	1.508404295839	1000
1	364	1.517546709095	1000
1	367	1.520691395995	1000
1	370	1.526719125574	1000
1	373	1.53829256836	1000
1	376	1.54602182486	1000
1	379	1.553643357448	1000
1	382	1.568751879655	1000
1	385	1.572827856446	1000
1	388	1.578631484685	1000
1	391	1.595227235163	1000
1	394	1.620516606422	1000
1	397	1.621819171604	1000
1	400	1.622982244659	1000
1	403	1.628226580824	1000
1	406	1.637857204653	1000
1	409	1.638267645673	1000
1	412	1.679938071424	1000
1	415	1.68458363253	1000
1	418	1.68758461047	1000
1	421	1.689412133973	1000
1	424	1.690639981351	1000
1	427	1.740293698477	1000
1	430	1.743912489436	1000
1	433	1.753153411751	1000
1	436	1.760282293731	1000
1	439	1.761540875758	1000
1	442	1.766753023629	1000
1	445	1.774354575042	1000
1	448	1.796431368463	1000
1	451	1.82463349594	1000
1	454	1.825092890895	1000
1	457	1.833611906022	1000
1	460	1.835802369245	1000
1	463	1.853920250712	1000
1	466	1.877944088658	1000
1	469	1.884304123196	1000
1	472	1.886113615318	1000
1	475	1.886519056745	1000
1	478	1.935117218811	1000
1	481	1.940724489608	1000
1	484	1.947262775146	1000
1	487	1.947885725772	1000
1	490	1.95334466791	1000
1	493	1.953545881102	1000
1	496	1.956693832812	1000
1	499	1.974067361796	1000
1	502	2.008682702821	1000
1	505	2.025318199045	1000
1	508	2.030293549557	1000
1	511	2.038363075759	1000
1	514	2.043330822831	1000
1	517	2.045704776921	1000
1	520	2.047955004335	1000
1	523	2.055426172463	1000
1	526	2.080338545188	1000
1	529	2.114953076649	1000
1	532	2.126198741262	1000
1	535	2.13709430959	1000
1	538	2.155464284305	1000
1	541	2.163782681539	1000
1	544	2.164402876409	1000
1	547	2.178814527288	1000
1	550	2.237364121944	1000
1	553	2.241095735604	1000
1	556	2.254734893547	1000
1	559	2.278700957157	1000
1	562	2.295377081922	1000
1	565	2.335432293928	1000
1	568	2.345128054569	1000
1	571	2.347993089043	1000
1	574	2.3510122724	1000
1	577	2.353974583626	1000
1	580	2.364090328931	1000
1	583	2.371310476769	1000
1	586	2.413484220935	1000
1	589	2.427177875769	1000
1	592	2.428247727249	1000
1	595	2.428944595594	1000
1	598	2.436973960278	1000
1	601	2.462518001412	1000
1	604	2.507478336778	1000
1	607	2.519015611637	1000
1	610	2.528399320288	1000
1	613	2.551539641931	1000
1	616	2.567882822623	1000
1	619	2.575697591406	1000
1	622	2.589261857957	1000
1	625	2.600470581948	1000
1	628	2.615521021189	1000
1	631	2.623128181422	1000
1	634	2.630434176387	1000
1	637	2.658861194437	1000
1	640	2.660632346832	1000
1	643	2.663756563771	1000
1	646	2.689359323221	1000
1	649	2.717533448358	1000
1	652	2.729987649264	1000
1	655	2.734698525602	1000
1	658	2.74349893768	1000
1	661	2.743499601903	1000
1	664	2.747984761429	1000
1	667	2.754634811378	1000
1	670	2.780623975548	1000
1	673	2.794292667356	1000
1	676	2.801601202709	1000
1	679	2.809527239666	1000
1	682	2.82818319492	1000
1	685	2.831310876473	1000
1	688	2.85678383632	1000
1	691	2.861300988538	1000
1	694	2.899186135035	1000
1	697	2.906844398302	1000
1	700	2.921764607637	1000
1	703	2.923767103332	1000
1	706	2.93949877175	1000
1	709	2.951969239389	1000
1	712	2.954872275126	1000
1	715	2.957348571049	1000
1	718	2.977125485127	1000
1	721	2.993621644573	1000
1	724	3.007103170568	1000
1	727	3.01099355993	1000
1	730	3.01330069722	1000
1	733	3.027928689362	1000
1	736	3.035393132391	1000
1	739	3.057416293226	1000
1	742	3.060167225128	1000
1	745	3.062330516723	1000
1	748	3.063930604202	1000
1	751	3.07929569645	1000
1	754	3.079666811949	1000
1	757	3.096158928122	1000
1	760	3.097324940262	1000
1	763	3.100267317374	1000
1	766	3.116867114968	1000
1	769	3.132654630068	1000
1	772	3.133214882992	1000
1	775	3.136030753183	1000
1	778	3.140088609761	1000
1	781	3.153659631511	1000
1	784	3.154440985888	1000
1	787	3.164174678155	1000
1	790	3.164286074448	1000
1	793	3.185765949702	1000
1	796	3.235637602849	1000
1	799	3.250225888529	1000
1	802	3.25263119487	1000
1	805	3.261250152631	1000
1	808	3.271672941409	1000
1	811	3.290261081559	1000
1	814	3.301452423822	1000
1	817	3.304409413689	1000
1	820	3.311696765152	1000
1	823	3.337027430445	1000
1	826	3.34516105447	1000
1	829	3.360247898417	1000
1	832	3.368238008257	1000
1	835	3.383032573813	1000
1	838	3.391305788267	1000
1	841	3.413642967983	1000
1	844	3.416236122582	1000
1	847	3.434047032374	1000
1	850	3.477962920343	1000
1	853	3.501755907198	1000
1	856	3.519948734356	1000
1	859	3.570371047471	1000
1	862	3.587179155835	1000
1	865	3.587227831691	1000
1	868	3.590995806468	1000
1	871	3.597337413208	1000
1	874	3.604045505248	1000
1	877	3.608288664151	1000
1	880	3.614441239863	1000
1	883	3.61598420271	1000
1	886	3.663355801921	1000
1	889	3.669608747774	1000
1	892	3.679714383408	1000
1	895	3.684766302985	1000
1	898	3.703429835309	1000
1	901	3.70978937426	1000
1	904	3.715131166333	1000
1	907	3.721251056339	1000
1	910	3.725562583201	1000
1	913	3.743474169171	1000
1	916	3.774753030799	1000
1	919	3.779475059732	1000
1	922	3.81613337708	1000
1	925	3.816301936175	1000
1	928	3.825451020386	1000
1	931	3.829809927013	1000
1	934	3.855542552587	1000
1	937	3.859004705111	1000
1	940	3.872581250322	1000
1	943	3.89253683969	1000
1	946	3.89932757419	1000
1	949	3.916066003285	1000
1	952	3.937301441164	1000
1	955	3.943019184155	1000
1	958	3.944237593162	1000
1	961	3.947788415641	1000
1	964	3.958544366101	1000
1	967	3.96631046255	1000
1	970	3.974342097014	1000
1	973	3.981703366089	1000
1	976	3.99062636439	1000
1	979	3.997627449642	1000
1	982	4.020605556734	1000
1	985	4.027423602539	1000
1	988	4.048468178279	1000
1	991	4.057012275066	1000
1	994	4.058096321995	1000
1	997	4.071043444897	1000
1	1000	4.07382049656	1000
1	1003	4.096369917771	1000
1	1006	4.110094205218	1000
1	1009	4.112451747849	1000
1	1012	4.11332077717	1000
1	1015	4.113437602082	1000
1	1018	4.140150609955	1000
1	1021	4.141869646212	1000
1	1024	4.159995185427	1000
1	1027	4.191104568732	1000
1	1030	4.206175290544	1000
1	1033	4.214274702228	1000
1	1036	4.221881887746	1000
1	1039	4.247599084151	1000
1	1042	4.25564186667	1000
1	1045	4.262066718883	1000
1	1048	4.264362271434	1000
1	1051	4.272101173328	1000
1	1054	4.290471354355	1000
1	1057	4.300226134689	1000
1	1060	4.302316476613	1000
1	1063	4.304179903639	1000
1	1066	4.316759372898	1000
1	1069	4.326057481452	1000
1	1072	4.330786172315	1000
1	1075	4.332694316517	1000
1	1078	4.334784701116	1000
1	1081	4.336447742973	1000
1	1084	4.346827000286	1000
1	1087	4.347988569954	1000
1	1090	4.37695676712	1000
1	1093	4.377996171053	1000
1	1096	4.397332155042	1000
1	1099	4.422491790324	1000
1	1102	4.423669224596	1000
1	1105	4.430337131554	1000
1	1108	4.438028814097	1000
1	1111	4.448444453881	1000
1	1114	4.463560147928	1000
1	1117	4.463889453133	1000
1	1120	4.47966371831	1000
1	1123	4.497142440849	1000
1	1126	4.497260214086	1000
1	1129	4.501683209361	1000
1	1132	4.504864326578	1000
1	1135	4.513264634211	1000
1	1138	4.550141536884	1000
1	1141	4.559933759652	1000
1	1144	4.561164382368	1000
1	1147	4.572828513061	1000
1	1150	4.596683786519	1000
1	1153	4.598742250047	1000
1	1156	4.657344237931	1000
1	1159	4.658410226523	1000
1	1162	4.659600884841	1000
1	1165	4.671649498928	1000
1	1168	4.707430854816	1000
1	1171	4.740558108284	1000
1	1174	4.747675087452	1000
1	1177	4.763285136582	1000
1	1180	4.779553758748	1000
1	1183	4.783954220594	1000
1	1186	4.78548510348	1000
1	1189	4.79252632916	1000
1	1192	4.798492840596	1000
1	1195	4.807600417887	1000
1	1198	4.830000103529	1000
1	1201	4.839221654458	1000
1	1204	4.852905000981	1000
1	1207	4.864179024811	1000
1	1210	4.865423074851	1000
1	1213	4.866581570199	1000
1	1216	4.867272685201	1000
1	1219	4.868358774843	1000
1	1222	4.871607467532	1000
1	1225	4.893561973402	1000
1	1228	4.902429013641	1000
1	1231	4.911064752413	1000
1	1234	4.923656858404	1000
1	1237	4.933095567507	1000
1	1240	4.933491615328	1000
1	1243	4.943905957767	1000
1	1246	4.961599024464	1000
1	1249	4.967262641517	1000
1	1252	4.975366911959	1000
1	1255	5.02333767368	1000
1	1258	5.026704584794	1000
1	1261	5.032331640721	1000
1	1264	5.032892459542	1000
1	1267	5.037346400192	1000
1	1270	5.058717616291	1000
1	1273	5.078459817416	1000
1	1276	5.090720437585	1000
1	1279	5.096228772715	1000
1	1282	5.100729516032	1000
1	1285	5.120153448829	1000
1	1288	5.121030068715	1000
1	1291	5.13483801983	1000
1	1294	5.140588572164	1000
1	1297	5.152647771873	1000
1	1300	5.184035463062	1000
1	1303	5.20712032591	1000
1	1306	5.215382492567	1000
1	1309	5.222082414038	1000
1	1312	5.24283184969	1000
1	1315	5.258915161234	1000
1	1318	5.266027050249	1000
1	1321	5.307674791215	1000
1	1324	5.313089656797	1000
1	1327	5.319170335364	1000
1	1330	5.335274572258	1000
1	1333	5.342428634955	1000
1	1336	5.375658368749	1000
1	1339	5.379226851084	1000
1	1342	5.384997389776	1000
1	1345	5.399331269098	1000
1	1348	5.426615755098	1000
1	1351	5.428164217136	1000
1	1354	5.431481889735	1000
1	1357	5.434591236806	1000
1	1360	5.44265983163	1000
1	1363	5.469314401828	1000
1	1366	5.47463441458	1000
1	1369	5.480472644257	1000
1	1372	5.510300217269	1000
1	1375	5.511750194024	1000
1	1378	5.523717781114	1000
1	1381	5.525427816462	1000
1	1384	5.531053364762	1000
1	1387	5.535759300237	1000
1	1390	5.549436845117	1000
1	1393	5.568485131873	1000
1	1396	5.576897677985	1000
1	1399	5.581113533364	1000
1	1402	5.60716824394	1000
1	1405	5.612372222204	1000
1	1408	5.628463042899	1000
1	1411	5.638188960665	1000
1	1414	5.640889470591	1000
1	1417	5.650432137007	1000
1	1420	5.659230841071	1000
1	1423	5.6643777831	1000
1	1426	5.664676920249	1000
1	1429	5.666610631195	1000
1	1432	5.668307348548	1000
1	1435	5.68307597476	1000
1	1438	5.697892133273	1000
1	1441	5.709245354168	1000
1	1444	5.722618852949	1000
1	1447	5.729738819768	1000
1	1450	5.744030597209	1000
1	1453	5.749734673245	1000
1	1456	5.750999426804	1000
1	1459	5.789703219809	1000
1	1462	5.790605521519	1000
1	1465	5.790839393034	1000
1	1468	5.837530314119	1000
1	1471	5.839459074606	1000
1	1474	5.843051310641	1000
1	1477	5.845964255889	1000
1	1480	5.856371760115	1000
1	1483	5.901004659846	1000
1	1486	5.904830752427	1000
1	1489	5.946939515039	1000
1	1492	5.947249451572	1000
1	1495	5.973525212147	1000
1	1498	5.988322276874	1000
1	1501	5.99222727748	1000
1	1504	6.019257191921	1000
1	1507	6.019579759355	1000
1	1510	6.031370099468	1000
1	1513	6.036167642738	1000
1	1516	6.077146741567	1000
1	1519	6.079362132042	1000
1	1522	6.107172444793	1000
1	1525	6.111977023171	1000
1	1528	6.138380975016	1000
1	1531	6.147001365039	1000
1	1534	6.155576975288	1000
1	1537	6.161446276215	1000
1	1540	6.170508818028	1000
1	1543	6.205250229432	1000
1	1546	6.232053907645	1000
1	1549	6.245619394025	1000
1	1552	6.257846832198	1000
1	1555	6.267385306231	1000
1	1558	6.271206022424	1000
1	1561	6.273131831712	1000
1	1564	6.296412410231	1000
1	1567	6.308508572717	1000
1	1570	6.312782562096	1000
1	1573	6.320181679158	1000
1	1576	6.320479677651	1000
1	1579	6.330278789917	1000
1	1582	6.335655845538	1000
1	1585	6.344038817611	1000
1	1588	6.346040366708	1000
1	1591	6.352691588389	1000
1	1594	6.381087071555	1000
1	1597	6.381189647779	1000
1	1600	6.422822373844	1000
1	1603	6.436911215486	1000
1	1606	6.438167762767	1000
1	1609	6.442273859066	1000
1	1612	6.451568060521	1000
1	1615	6.46702274339	1000
1	1618	6.472932039907	1000
1	1621	6.476023058303	1000
1	1624	6.483303607214	1000
1	1627	6.526245627924	1000
1	1630	6.547781705292	1000
1	1633	6.577333436525	1000
1	1636	6.590539058891	1000
1	1639	6.597511162757	1000
1	1642	6.611376859502	1000
1	1645	6.623926763015	1000
1	1648	6.624281144749	1000
1	1651	6.654519809075	1000
1	1654	6.663902422152	1000
1	1657	6.720619164514	1000
1	1660	6.726415800805	1000
1	1663	6.746136039627	1000
1	1666	6.753552668153	1000
1	1669	6.774594045572	1000
1	1672	6.783889410408	1000
1	1675	6.810081977079	1000
1	1678	6.835535830561	1000
1	1681	6.840311211297	1000
1	1684	6.846529945474	1000
1	1687	6.85597014286	1000
1	1690	6.867634730482	1000
1	1693	6.873358703493	1000
1	1696	6.882732728973	1000
1	1699	6.884279272726	1000
1	1702	6.897978659008	1000
1	1705	6.902039952602	1000
1	1708	6.902567079412	1000
1	1711	6.90404799307	1000
1	1714	6.905398352427	1000
1	1717	6.90996448381	1000
1	1720	6.91336135304	1000
1	1723	6.923289264123	1000
1	1726	6.951708096759	1000
1	1729	6.962121158474	1000
1	1732	6.973054908171	1000
1	1735	6.976317298234	1000
1	1738	6.986752682564	1000
1	1741	6.988644747198	1000
1	1744	6.993551757549	1000
1	1747	7.005338615762	1000
1	1750	7.010718567441	1000
1	1753	7.039747184171	1000
1	1756	7.065040548472	1000
1	1759	7.071873781838	1000
1	1762	7.080621862495	1000
1	1765	7.088346560165	1000
1	1768	7.090791984752	1000
1	1771	7.097638056609	1000
1	1774	7.100130496044	1000
1	1777	7.115202443229	1000
1	1780	7.124085469526	1000
1	1783	7.128723399711	1000
1	1786	7.128760651993	1000
1	1789	7.139675500451	1000
1	1792	7.152241807517	1000
1	1795	7.152304245111	1000
1	1798	7.194471990986	1000
1	1801	7.207554938024	1000
1	1804	7.211718084622	1000
1	1807	7.214401273322	1000
1	1810	7.245597352266	1000
1	1813	7.250037102423	1000
1	1816	7.256231543882	1000
1	1819	7.268262292782	1000
1	1822	7.29482101956	1000
1	1825	7.301621443078	1000
1	1828	7.333231019829	1000
1	1831	7.343991249868	1000
1	1834	7.350774313244	1000
1	1837	7.361555141641	1000
1	1840	7.366808015114	1000
1	1843	7.37964900499	1000
1	1846	7.39232629692	1000
1	1849	7.413018999546	1000
1	1852	7.419204370146	1000
1	1855	7.419663835719	1000
1	1858	7.46976915897	1000
1	1861	7.47690275117	1000
1	1864	7.510199806629	1000
1	1867	7.523578208878	1000
1	1870	7.527300562357	1000
1	1873	7.537263690118	1000
1	1876	7.57500366075	1000
1	1879	7.576449159963	1000
1	1882	7.58026239206	1000
1	1885	7.581289841589	1000
1	1888	7.598681704023	1000
1	1891	7.598944832591	1000
1	1894	7.60071641519	1000
1	1897	7.604339875232	1000
1	1900	7.628922873111	1000
1	1903	7.631295654326	1000
1	1906	7.638110306643	1000
1	1909	7.642828914087	1000
1	1912	7.653336579664	1000
1	1915	7.686411136594	1000
1	1918	7.720329424241	1000
1	1921	7.720976667718	1000
1	1924	7.731859025006	1000
1	1927	7.758544418795	1000
1	1930	7.776764848576	1000
1	1933	7.779616839029	1000
1	1936	7.796994592516	1000
1	1939	7.799509366345	1000
1	1942	7.826992452984	1000
1	1945	7.827100109632	1000
1	1948	7.82823491047	1000
1	1951	7.839820140066	1000
1	1954	7.845603890581	1000
1	1957	7.846822475828	1000
1	1960	7.897165699269	1000
1	1963	7.924393328308	1000
1	1966	7.928188173578	1000
1	1969	7.935879158656	1000
1	1972	7.943720597773	1000
1	1975	7.952241441921	1000
1	1978	7.993271079953	1000
1	1981	7.994534852983	1000
1	1984	7.995020348451	1000
1	1987	8.002953306061	1000
1	1990	8.010308913285	1000
1	1993	8.013527590404	1000
1	1996	8.014255682006	1000
1	1999	8.015842221204	1000
1	2002	8.03916062788	1000
1	2005	8.045283884653	1000
1	2008	8.051047386419	1000
1	2011	8.051314010243	1000
1	2014	8.056949306629	1000
1	2017	8.069951884889	1000
1	2020	8.081733303756	1000
1	2023	8.111172973854	1000
1	2026	8.124542350692	1000
1	2029	8.129242565171	1000
1	2032	8.133803993547	1000
1	2035	8.155303845578	1000
1	2038	8.173246618996	1000
1	2041	8.177207899325	1000
1	2044	8.192226006808	1000
1	2047	8.202120867486	1000
1	2050	8.20824397729	1000
1	2053	8.217326229097	1000
1	2056	8.218395260587	1000
1	2059	8.23154305903	1000
1	2062	8.231904052576	1000
1	2065	8.258313855068	1000
1	2068	8.272066791489	1000
1	2071	8.29869833775	1000
1	2074	8.298712837373	1000
1	2077	8.331930038065	1000
1	2080	8.370059205523	1000
1	2083	8.389153632683	1000
1	2086	8.447204682072	1000
1	2089	8.452470932197	1000
1	2092	8.475104313479	1000
1	2095	8.49277566783	1000
1	2098	8.508073885261	1000
1	2101	8.520116177916	1000
1	2104	8.524523395926	1000
1	2107	8.533770968656	1000
1	2110	8.537622940551	1000
1	2113	8.537727675307	1000
1	2116	8.538030808769	1000
1	2119	8.539900639002	1000
1	2122	8.548553267855	1000
1	2125	8.551575765271	1000
1	2128	8.557110474602	1000
1	2131	8.557790681176	1000
1	2134	8.586846720933	1000
1	2137	8.612795580246	1000
1	2140	8.640104220043	1000
1	2143	8.644949254928	1000
1	2146	8.659925473703	1000
1	2149	8.66660672344	1000
1	2152	8.670915871634	1000
1	2155	8.67179202216	1000
1	2158	8.678366971412	1000
1	2161	8.684265515717	1000
1	2164	8.686363379717	1000
1	2167	8.691536601644	1000
1	2170	8.692742667929	1000
1	2173	8.717327523852	1000
1	2176	8.730544276792	1000
1	2179	8.733113263128	1000
1	2182	8.763139158918	1000
1	2185	8.773540051766	1000
1	2188	8.780843484015	1000
1	2191	8.793181947834	1000
1	2194	8.796698709807	1000
1	2197	8.806309614001	1000
1	2200	8.808007039261	1000
1	2203	8.810692504527	1000
1	2206	8.819352409499	1000
1	2209	8.820583360618	1000
1	2212	8.84349802084	1000
1	2215	8.849539134225	1000
1	2218	8.852723573718	1000
1	2221	8.863289794978	1000
1	2224	8.879774426154	1000
1	2227	8.891042649396	1000
1	2230	8.901424438103	1000
1	2233	8.903661833713	1000
1	2236	8.917576025305	1000
1	2239	8.962740194827	1000
1	2242	8.973996292214	1000
1	2245	8.978773024274	1000
1	2248	8.998248904479	1000
1	2251	9.019970236617	1000
1	2254	9.026409701613	1000
1	2257	9.032855906458	1000
1	2260	9.065958642333	1000
1	2263	9.08132819821	1000
1	2266	9.08172965532	1000
1	2269	9.088390036024	1000
1	2272	9.089573230026	1000
1	2275	9.135676225668	1000
1	2278	9.145950219557	1000
1	2281	9.158333267992	1000
1	2284	9.163772681642	1000
1	2287	9.17699382465	1000
1	2290	9.187173026368	1000
1	2293	9.205056015408	1000
1	2296	9.232699297928	1000
1	2299	9.238915646613	1000
1	2302	9.266000692313	1000
1	2305	9.266808255919	1000
1	2308	9.280688647395	1000
1	2311	9.283841712314	1000
1	2314	9.293130576826	1000
1	2317	9.310926089199	1000
1	2320	9.327398777269	1000
1	2323	9.342735812796	1000
1	2326	9.350649846397	1000
1	2329	9.353238244492	1000
1	2332	9.35599975371	1000
1	2335	9.365200458296	1000
1	2338	9.37211153397	1000
1	2341	9.416373197676	1000
1	2344	9.420667429744	1000
1	2347	9.42165458053	1000
1	2350	9.43722861936	1000
1	2353	9.481700507008	1000
1	2356	9.499984550372	1000
1	2359	9.503389551602	1000
1	2362	9.50383650471	1000
1	2365	9.51010565563	1000
1	2368	9.535325978639	1000
1	2371	9.542113453691	1000
1	2374	9.546123798671	1000
1	2377	9.578980078214	1000
1	2380	9.59673497991	1000
1	2383	9.608064674935	1000
1	2386	9.608096842835	1000
1	2389	9.640268783912	1000
1	2392	9.653713092905	1000
1	2395	9.656763548858	1000
1	2398	9.657064323909	1000
1	2401	9.657154280042	1000
1	2404	9.688628186305	1000
1	2407	9.702805051088	1000
1	2410	9.717460413211	1000
1	2413	9.728338428538	1000
1	2416	9.737584876387	1000
1	2419	9.744881255896	1000
1	2422	9.755882542356	1000
1	2425	9.768621182152	1000
1	2428	9.774223648282	1000
1	2431	9.787463551914	1000
1	2434	9.79478875443	1000
1	2437	9.795855605129	1000
1	2440	9.799041545641	1000
1	2443	9.800060030327	1000
1	2446	9.804723633122	1000
1	2449	9.816063849009	1000
1	2452	9.821563143766	1000
1	2455	9.837108623733	1000
1	2458	9.850709282857	1000
1	2461	9.852584794567	1000
1	2464	9.854792481891	1000
1	2467	9.855591743538	1000
1	2470	9.859275472129	1000
1	2473	9.864414568475	1000
1	2476	9.8655232187	1000
1	2479	9.876585769799	1000
1	2482	9.891622706927	1000
1	2485	9.893675328755	1000
1	2488	9.898700440982	1000
1	2491	9.914290832971	1000
1	2494	9.927354227048	1000
1	2497	9.950481881015	1000
1	2500	9.96018736253	1000
1	2503	9.96050049011	1000
1	2506	9.961208838744	1000
1	2509	9.962210214955	1000
1	2512	9.970946489551	1000
1	2515	9.987829656094	1000
1	2518	9.988223322751	1000
1	2521	9.995544172246	1000
1	2529	10.016445940504	1000
1	2532	10.04211967078	1000
1	2535	10.057978752054	1000
1	2538	10.06430477753	1000
1	2541	10.069916266457	1000
1	2544	10.078615347693	1000
1	2547	10.105000531169	1000
1	2567	10.121040463634	1000
1	2570	10.121102459067	1000
1	2573	10.135318692875	1000
1	2576	10.165553774782	1000
1	2579	10.180427140687	1000
1	2582	10.182764813845	1000
1	2585	10.190693394966	1000
1	2588	10.192507680083	1000
1	2591	10.197844301542	1000
1	2594	10.231042063559	1000
1	2597	10.261857136196	1000
1	2600	10.265846559255	1000
1	2603	10.270826038248	1000
1	2606	10.281827914696	1000
1	2609	10.321454122125	1000
1	2612	10.323373349371	1000
1	2615	10.326936714076	1000
1	2618	10.351752261858	1000
1	2621	10.359877002406	1000
1	2624	10.387383997916	1000
1	2627	10.389846431736	1000
1	2630	10.398975030958	1000
1	2633	10.403714134463	1000
1	2636	10.408281225255	1000
1	2639	10.415387322903	1000
1	2642	10.422197713909	1000
1	2645	10.427503515972	1000
1	2648	10.457080637609	1000
1	2651	10.47287040839	1000
1	2671	10.488473878094	1000
1	2674	10.492582299048	1000
1	2677	10.502927038576	1000
1	2680	10.5210518964	1000
1	2683	10.540103447851	1000
1	2686	10.545172289244	1000
1	2709	10.562854022564	1000
1	2712	10.578830874769	1000
1	2715	10.580661788547	1000
1	2718	10.604775891947	1000
1	2721	10.611762064585	1000
1	2724	10.619758035097	1000
1	2727	10.626896550168	1000
1	2730	10.636964229563	1000
1	2733	10.648612218537	1000
1	2736	10.6568863736	1000
1	2759	10.681076183172	1000
1	2776	10.69293396701	1000
1	2794	10.699092467585	1000
1	2811	10.705560941687	1000
1	2831	10.725542798416	1000
1	2848	10.730678860222	1000
1	2858	10.733529646737	1000
1	2862	10.734264279922	1000
1	2903	10.75931656308	1000
1	2921	10.789409231103	1000
1	2931	10.790944870441	1000
1	2948	10.795830996607	1000
1	2965	10.798144872473	1000
1	2969	10.79962307294	1000
1	3030	10.827238113332	1000
1	3041	10.827940819512	1000
1	3067	10.87518009307	1000
1	3077	10.876397190471	1000
1	3103	10.900291778157	1000
1	3120	10.910322308967	1000
1	3138	10.915827133063	1000
1	3155	10.920855982706	1000
1	3175	10.937850304472	1000
1	3192	10.942382868938	1000
1	3210	10.955234329494	1000
1	3228	10.963975297199	1000
1	3246	10.971937557418	1000
1	3265	10.999708856201	1000
1	3282	11.009415460464	1000
1	3301	11.030459428672	1000
1	3319	11.045976291927	1000
1	3329	11.046448134926	1000
1	3354	11.064247617306	1000
1	3365	11.067181100017	1000
1	3391	11.095196158682	1000
1	3401	11.095722630817	1000
1	3418	11.100583509567	1000
1	3422	11.101844275562	1000
1	3453	11.109590032814	1000
1	3481	11.130169110063	1000
1	3491	11.134418175664	1000
1	3508	11.136381608626	1000
1	3525	11.14119212319	1000
1	3553	11.161368495933	1000
1	3563	11.163183729274	1000
1	3580	11.166279072025	1000
1	3584	11.167135116102	1000
1	3623	11.181813392989	1000
1	3641	11.187848341989	1000
1	3659	11.192315723387	1000
1	3679	11.207532586473	1000
1	3696	11.212445858225	1000
1	3715	11.228059209879	1000
1	3733	11.248320943815	1000
1	3743	11.251266577601	1000
1	3769	11.294979093857	1000
1	3779	11.297105066788	1000
1	3796	11.301229171408	1000
1	3800	11.303607587255	1000
1	3830	11.308694295339	1000
1	3849	11.316542818089	1000
1	3875	11.325404968533	1000
1	3895	11.348462415765	1000
1	3913	11.37488963711	1000
1	3923	11.377872771401	1000
1	3948	11.38957551991	1000
1	3958	11.39099411425	1000
1	3983	11.398365477593	1000
1	4000	11.403034678294	1000
1	4018	11.407601034815	1000
1	4037	11.415507937377	1000
1	4057	11.431212279294	1000
1	4067	11.432072585911	1000
1	4093	11.457433365322	1000
1	4111	11.473361240992	1000
1	4121	11.475691532737	1000
1	4147	11.509285805959	1000
1	4164	11.5177560299	1000
1	4183	11.620488249012	1000
1	4193	11.623124933958	1000
1	4217	11.632311179644	1000
1	4228	11.636425256354	1000
1	4246	11.64077711651	1000
1	4272	11.651507516393	1000
1	4291	11.682076931404	1000
1	4309	11.701710248291	1000
1	4327	11.717155953561	1000
1	4344	11.726985208082	1000
1	4363	11.757643777559	1000
1	4380	11.76577960382	1000
1	4399	11.790621311878	1000
1	4417	11.812169195144	1000
1	4427	11.815056263477	1000
1	4453	11.832756483252	1000
1	4463	11.832903433318	1000
1	4480	11.837581420276	1000
1	4484	11.840711058151	1000
1	4515	11.84919467612	1000
1	4543	11.865215193132	1000
1	4553	11.866448577516	1000
1	4577	11.875129929517	1000
1	4597	11.908577393109	1000
1	4607	11.911692696065	1000
1	4632	11.925259176427	1000
1	4650	11.936042951883	1000
1	4660	11.93616432799	1000
1	4678	11.943915511433	1000
1	4704	11.958719230764	1000
1	4715	11.959258890779	1000
1	4741	11.984654296955	1000
1	4758	11.993463962751	1000
1	4768	11.993837653952	1000
1	4772	11.996887284906	1000
1	4813	12.033752348589	1000
1	4830	12.04422881721	1000
1	4840	12.045593193551	1000
1	4858	12.049661647483	1000
1	4875	12.056982851109	1000
1	4879	12.057236922691	1000
1	4911	12.063601418669	1000
1	4937	12.071668822009	1000
1	4947	12.075020276833	1000
1	4973	12.085679686059	1000
1	4993	12.102471760808	1000
1	5003	12.105699407148	1000
1	5028	12.117326211983	1000
1	5046	12.129573441799	1000
1	5065	12.165176917724	1000
1	5083	12.183252789671	1000
1	5101	12.205886575594	1000
1	5118	12.213976594348	1000
1	5128	12.216436534037	1000
1	5155	12.282152360254	1000
1	5165	12.283814622359	1000
1	5189	12.29146620299	1000
1	5199	12.292312471365	1000
1	5227	12.326869396741	1000
1	5245	12.367072578009	1000
1	5263	12.382322011442	1000
1	5280	12.387491274399	1000
1	5290	12.391013783239	1000
1	5307	12.394713353854	1000
1	5324	12.396347232734	1000
1	5350	12.405300972698	1000
1	5361	12.407136231539	1000
1	5379	12.411706625391	1000
1	5405	12.423531308326	1000
1	5425	12.439134629079	1000
1	5435	12.439429494828	1000
1	5452	12.446177363928	1000
1	5478	12.45884829472	1000
1	5497	12.481876263816	1000
1	5514	12.489615973868	1000
1	5533	12.531381150912	1000
1	5543	12.535086100127	1000
1	5547	12.535249309439	1000
1	5577	12.543183345648	1000
1	5595	12.546733752134	1000
1	5623	12.567561773528	1000
1	5633	12.570741439157	1000
1	5650	12.575205151258	1000
1	5677	12.59400326892	1000
1	5695	12.609072495262	1000
1	5712	12.618871231235	1000
1	5731	12.633518477697	1000
1	5748	12.640027034022	1000
1	5758	12.640090924403	1000
1	5762	12.640227965442	1000
1	5793	12.64881812281	1000
1	5797	12.649861704942	1000
1	5801	12.650490817168	1000
1	5857	12.690898156914	1000
1	5875	12.71440632636	1000
1	5885	12.716385207431	1000
1	5889	12.716393180666	1000
1	5929	12.750492392136	1000
1	5939	12.754406561706	1000
1	5956	12.756874591146	1000
1	5982	12.770987307873	1000
1	5992	12.772370941759	1000
1	6010	12.776059839561	1000
1	6037	12.820371924216	1000
1	6054	12.832613844952	1000
1	6072	12.841438431861	1000
1	6090	12.847526783734	1000
1	6109	12.865400056175	1000
1	6119	12.867223298478	1000
1	6145	12.908281739432	1000
1	6163	12.931971739716	1000
1	6180	12.943508984987	1000
1	6190	12.944035231447	1000
1	6216	12.958517179702	1000
1	6235	12.987858629802	1000
1	6252	12.99678123565	1000
1	6269	13.002028881922	1000
1	6280	13.003566664953	1000
1	6306	13.020439787158	1000
1	6325	13.046395945547	1000
1	6335	13.047663628854	1000
1	6360	13.064738359992	1000
1	6370	13.06494485231	1000
1	6397	13.105899811462	1000
1	6414	13.117355763481	1000
1	6432	13.127003074294	1000
1	6442	13.131213942354	1000
1	6469	13.16300424544	1000
1	6479	13.166713657722	1000
1	6505	13.187847020246	1000
1	6523	13.238330739689	1000
1	6541	13.256686988905	1000
1	6558	13.265469393379	1000
1	6568	13.266289693638	1000
1	6586	13.273963009559	1000
1	6611	13.28088351702	1000
1	6621	13.283603253641	1000
1	6647	13.290214437336	1000
1	6665	13.295527916401	1000
1	6675	13.297672905042	1000
1	6701	13.304660209016	1000
1	6711	13.308318960948	1000
1	6737	13.317178262495	1000
1	6747	13.317607779196	1000
1	6775	13.346010884874	1000
1	6793	13.366348501969	1000
1	6810	13.375999627943	1000
1	6829	13.398910633822	1000
1	6847	13.438278075971	1000
1	6857	13.43968352604	1000
1	6881	13.451641561325	1000
1	6901	13.526180933842	1000
1	6919	13.579144795092	1000
1	6936	13.590240390129	1000
1	6946	13.591884267628	1000
1	6971	13.602385846655	1000
1	6981	13.602410647845	1000
1	6986	13.605072051637	1000
1	7027	13.642588475366	1000
1	7044	13.647402099561	1000
1	7062	13.659608371074	1000
1	7073	13.663564753313	1000
1	7099	13.699001859052	1000
1	7117	13.714649972968	1000
1	7134	13.719449457453	1000
1	7153	13.73827830762	1000
1	7163	13.739652004373	1000
1	7180	13.745629265593	1000
1	7197	13.74862955702	1000
1	7224	13.76244333019	1000
1	7234	13.763740317877	1000
1	7252	13.769810889046	1000
1	7269	13.773697229534	1000
1	7295	13.78216819962	1000
1	7313	13.787335705693	1000
1	7333	13.802042581716	1000
1	7343	13.802341190696	1000
1	7367	13.81440222537	1000
1	7378	13.817547508992	1000
1	7396	13.821302835236	1000
1	7423	13.840631435861	1000
1	7441	13.877997085803	1000
1	7458	13.882564310739	1000
1	7477	13.903604375188	1000
1	7487	13.904922030952	1000
1	7511	13.916982892988	1000
1	7531	13.933668078062	1000
1	7541	13.935702997743	1000
1	7558	13.942364558285	1000
1	7585	13.969150879596	1000
1	7595	13.970463013758	1000
1	7599	13.970682158952	1000
1	7629	13.981398481627	1000
1	7655	13.988260930807	1000
1	7675	14.007495797257	1000
1	7693	14.038334399929	1000
1	7703	14.04259999913	1000
1	7727	14.048500201672	1000
1	7745	14.056492939695	1000
1	7764	14.067138135004	1000
1	7783	14.116651001509	1000
1	7800	14.130992357446	1000
1	7818	14.13691503471	1000
1	7828	14.140589549517	1000
1	7855	14.175313229176	1000
1	7865	14.177061149154	1000
1	7890	14.192348136565	1000
1	7909	14.223494713837	1000
1	7926	14.236606237789	1000
1	7944	14.243206326158	1000
1	7954	14.245868922375	1000
1	7972	14.251365354907	1000
1	7998	14.266091097998	1000
1	8016	14.278673004608	1000
1	8035	14.310242102602	1000
1	8053	14.334438433629	1000
1	8071	14.354762103576	1000
1	8089	14.383852476625	1000
1	8099	14.38773363273	1000
1	8123	14.393268986285	1000
1	8141	14.399003362558	1000
1	8160	14.408867424246	1000
1	8178	14.422106758304	1000
1	8189	14.426161277227	1000
1	8193	14.426397129513	1000
1	8223	14.432511494761	1000
1	8241	14.436938685418	1000
1	8269	14.471144711936	1000
1	8287	14.497444219725	1000
1	8305	14.521064233007	1000
1	8322	14.533765390708	1000
1	8340	14.538829815354	1000
1	8358	14.548381260582	1000
1	8377	14.568644660063	1000
1	8387	14.5698904721	1000
1	8413	14.589268393634	1000
1	8423	14.589773014079	1000
1	8449	14.610114338329	1000
1	8467	14.629890225962	1000
1	8477	14.630518476207	1000
1	8501	14.642357769922	1000
1	8520	14.650734554903	1000
1	8530	14.652967900477	1000
1	8534	14.654895263772	1000
1	8574	14.672702633376	1000
1	8592	14.682766057825	1000
1	8611	14.731659952802	1000
1	8629	14.780034889889	1000
1	8647	14.839019323842	1000
1	8657	14.840534459808	1000
1	8683	14.873951587234	1000
1	8693	14.877317198884	1000
1	8717	14.884671770591	1000
1	8737	14.901668190516	1000
1	8747	14.904400350342	1000
1	8771	14.914425498312	1000
1	8782	14.916892336018	1000
1	8786	14.91821997709	1000
1	8803	14.919707141094	1000
1	8821	14.925018399584	1000
1	8825	14.925074387997	1000
1	8843	14.93171196265	1000
1	8889	14.944806733649	1000
1	8915	14.95097045248	1000
1	8925	14.952046852601	1000
1	8929	14.952823732537	1000
1	8947	14.956734430922	1000
1	8951	14.958960452926	1000
1	9007	14.999221946481	1000
1	9017	15.001189554142	1000
1	9043	15.02083511446	1000
1	9060	15.031420915352	1000
1	9078	15.041528672768	1000
1	9096	15.050139936246	1000
1	9115	15.092945433807	1000
1	9132	15.098373186095	1000
1	9151	15.116982446236	1000
1	9168	15.12670655185	1000
1	9186	15.132749448844	1000
1	9205	15.170087458536	1000
1	9222	15.181032532575	1000
1	9232	15.182551773142	1000
1	9250	15.189037693846	1000
1	9277	15.207293814227	1000
1	9294	15.221493939888	1000
1	9313	15.2512659192	1000
1	9323	15.254869088152	1000
1	9349	15.271904508162	1000
1	9366	15.279295968904	1000
1	9384	15.289524771968	1000
1	9403	15.326750338858	1000
1	9421	15.3732738661	1000
1	9439	15.397004369368	1000
1	9456	15.402342896948	1000
1	9475	15.428581963281	1000
1	9492	15.440795506724	1000
1	9510	15.447540865867	1000
1	9520	15.447977630946	1000
1	9546	15.465620429285	1000
1	9564	15.473988836169	1000
1	9583	15.492500762206	1000
1	9601	15.509041762149	1000
1	9619	15.527975136119	1000
1	9629	15.532266403421	1000
1	9655	15.551627670294	1000
1	9672	15.561179037522	1000
1	9690	15.568873124273	1000
1	9708	15.58236493542	1000
1	9718	15.582624016389	1000
1	9723	15.583919273287	1000
1	9740	15.588066014128	1000
1	9781	15.636953539557	1000
1	9791	15.638759867408	1000
1	9808	15.643576282964	1000
1	9812	15.64420511175	1000
1	9829	15.649033590285	1000
1	9847	15.65366729939	1000
1	9889	15.688873279764	1000
1	9907	15.711257176819	1000
1	9924	15.717047227034	1000
1	9934	15.717348198669	1000
1	9961	15.738684687124	1000
1	9978	15.751649341661	1000
1	9989	15.753632996212	1000
1	10015	15.820106268398	1000
1	10025	15.821373707474	1000
1	10051	15.845592919895	1000
1	10061	15.849775125234	1000
1	10085	15.856633789476	1000
1	10105	15.875677486203	1000
1	10122	15.889257623016	1000
1	10141	15.922598852515	1000
1	10158	15.934245925313	1000
1	10168	15.935481089085	1000
1	10195	15.96136840671	1000
1	10213	15.978960539831	1000
1	10231	15.993892680765	1000
1	10241	15.99455545378	1000
1	10258	16.000610052917	1000
1	10275	16.002808992494	1000
1	10303	16.02351417679	1000
1	10321	16.037983014249	1000
1	10339	16.063737951664	1000
1	10357	16.10451940406	1000
1	10375	16.122405809591	1000
1	10393	16.184273227728	1000
1	10410	16.195720200808	1000
1	10420	16.19617423835	1000
1	10424	16.196346486806	1000
1	10442	16.201370985488	1000
1	10482	16.222182275713	1000
1	10501	16.246313330978	1000
1	10519	16.285186108413	1000
1	10529	16.285994172451	1000
1	10533	16.286541311762	1000
1	10573	16.315882658115	1000
1	10590	16.320249585665	1000
1	10607	16.330046588398	1000
1	10627	16.378555505638	1000
1	10644	16.384694387124	1000
1	10662	16.397849138991	1000
1	10680	16.403996650756	1000
1	10699	16.421538938555	1000
1	10716	16.430541003604	1000
1	10726	16.433795200919	1000
1	10744	16.437593219225	1000
1	10761	16.441175049371	1000
1	10787	16.450294709586	1000
1	10807	16.464870626873	1000
1	10825	16.500647823818	1000
1	10842	16.51486129301	1000
1	10861	16.533096066962	1000
1	10871	16.535316505859	1000
1	10888	16.540938565293	1000
1	10912	16.547347291445	1000
1	10932	16.561262178899	1000
1	10943	16.56547206078	1000
1	10960	16.569808726172	1000
1	10984	16.575087339438	1000
1	11005	16.595035208083	1000
1	11022	16.605376557151	1000
1	11032	16.606315693326	1000
1	11036	16.607293417402	1000
1	11054	16.612862381297	1000
1	11094	16.630321940087	1000
1	11112	16.644325279484	1000
1	11131	16.659096572052	1000
1	11149	16.676587997631	1000
1	11159	16.680649854362	1000
1	11183	16.690185537502	1000
1	11202	16.699591663446	1000
1	11221	16.715739597696	1000
1	11239	16.753462192699	1000
1	11249	16.757370787187	1000
1	11275	16.776287564815	1000
1	11292	16.789232241364	1000
1	11310	16.799649046424	1000
1	11329	16.817542495018	1000
1	11347	16.852138296054	1000
1	11357	16.852586873805	1000
1	11361	16.854500452515	1000
1	11400	16.871441631337	1000
1	11410	16.872491765336	1000
1	11435	16.881202877211	1000
1	11445	16.884182271811	1000
1	11463	16.888029623699	1000
1	11490	16.902551143429	1000
1	11500	16.902919038978	1000
1	11527	16.927712077323	1000
1	11544	16.93476626268	1000
1	11562	16.943141605775	1000
1	11580	16.95246120243	1000
1	11598	16.964907265024	1000
1	11616	16.969982078414	1000
1	11626	16.971261180256	1000
1	11643	16.97586055712	1000
1	11647	16.978069681216	1000
1	11686	16.987816449793	1000
1	11704	16.992409661109	1000
1	11725	17.030469897793	1000
1	11743	17.070953215465	1000
1	11760	17.082568199567	1000
1	11778	17.094100433326	1000
1	11797	17.144803636144	1000
1	11815	17.170998152714	1000
1	11833	17.188379762465	1000
1	11850	17.192895135106	1000
1	11867	17.198354889124	1000
1	11877	17.201051628308	1000
1	11903	17.20906484692	1000
1	11923	17.26477746474	1000
1	11941	17.293963088039	1000
1	11951	17.295474601862	1000
1	11955	17.295780757847	1000
1	11995	17.323249402983	1000
1	12012	17.332494151917	1000
1	12022	17.335174723118	1000
1	12048	17.348612261609	1000
1	12066	17.361013681346	1000
1	12076	17.362576155574	1000
1	12094	17.366182935719	1000
1	12098	17.366926435847	1000
1	12115	17.369752984606	1000
1	12119	17.37145597413	1000
1	12123	17.374032667659	1000
1	12182	17.387912668556	1000
1	12187	17.388521870765	1000
1	12191	17.389810950678	1000
1	12208	17.391539801414	1000
1	12226	17.396106866971	1000
1	12244	17.400365562053	1000
1	12249	17.40389904217	1000
1	12309	17.420560361422	1000
1	12337	17.495273179815	1000
1	12354	17.504435447018	1000
1	12373	17.539067808133	1000
1	12390	17.545130108744	1000
1	12400	17.546483866641	1000
1	12417	17.552790546273	1000
1	12435	17.557004447416	1000
1	12461	17.565165014795	1000
1	12480	17.578006840951	1000
1	12498	17.585424435422	1000
1	12517	17.618254521571	1000
1	12535	17.644183884096	1000
1	12553	17.658710923265	1000
1	12570	17.666783646345	1000
1	12580	17.668478086562	1000
1	12598	17.674548415561	1000
1	12624	17.689173455114	1000
1	12635	17.693197206829	1000
1	12652	17.694514825508	1000
1	12679	17.723133189227	1000
1	12697	17.737948468741	1000
1	12714	17.749411231129	1000
1	12733	17.76828265498	1000
1	12751	17.789951449152	1000
1	12768	17.797878656472	1000
1	12787	17.823441236659	1000
1	12805	17.853224507172	1000
1	12815	17.857026560772	1000
1	12840	17.868250572556	1000
1	12858	17.877223942697	1000
1	12876	17.886488819225	1000
1	12895	17.91979123885	1000
1	12912	17.924160618677	1000
1	12931	17.973365438901	1000
1	12949	18.001254971124	1000
1	12966	18.008620857909	1000
1	12985	18.029029846462	1000
1	13003	18.046616339041	1000
1	13020	18.06021087016	1000
1	13038	18.064835888796	1000
1	13048	18.067460493974	1000
1	13074	18.080820127098	1000
1	13093	18.103036200086	1000
1	13103	18.103232835897	1000
1	13127	18.115586462514	1000
1	13146	18.122606007864	1000
1	13165	18.150009726297	1000
1	13182	18.154663697162	1000
1	13199	18.162377362979	1000
1	13218	18.171054878743	1000
1	13228	18.172870887794	1000
1	13254	18.187845662397	1000
1	13273	18.209142816447	1000
1	13283	18.209858660873	1000
1	13300	18.213992040545	1000
1	13304	18.214457487801	1000
1	13345	18.252089592179	1000
1	13362	18.265291030904	1000
1	13381	18.305248860962	1000
1	13398	18.314347344607	1000
1	13417	18.333785357095	1000
1	13434	18.339414154489	1000
1	13451	18.344654262584	1000
1	13469	18.350357212818	1000
1	13488	18.36322771078	1000
1	13506	18.368572907041	1000
1	13525	18.396248102999	1000
1	13543	18.445338216861	1000
1	13553	18.445709004966	1000
1	13557	18.448291456145	1000
1	13574	18.449720237242	1000
1	13578	18.450239688216	1000
1	13582	18.453340911577	1000
1	13613	18.460445194803	1000
1	13668	18.48221254675	1000
1	13678	18.485222177938	1000
1	13703	18.493395502962	1000
1	13723	18.525241442687	1000
1	13740	18.53844453584	1000
1	13759	18.557643081849	1000
1	13776	18.567251709241	1000
1	13795	18.61447917823	1000
1	13812	18.625139262886	1000
1	13822	18.625698209195	1000
1	13826	18.628345711897	1000
1	13857	18.634571473791	1000
1	13883	18.645605339148	1000
1	13903	18.663342617037	1000
1	13920	18.669737143389	1000
1	13939	18.684594048609	1000
1	13957	18.703314367245	1000
1	13974	18.707894064621	1000
1	13993	18.75440828085	1000
1	14010	18.7669943748	1000
1	14029	18.792537760753	1000
1	14046	18.802279245459	1000
1	14065	18.818518347928	1000
1	14083	18.836182879277	1000
1	14101	18.86484692082	1000
1	14111	18.866802086692	1000
1	14135	18.876607128541	1000
1	14153	18.883318467435	1000
1	14173	18.914110674342	1000
1	14183	18.915443122807	1000
1	14209	18.964040546841	1000
1	14227	18.989037250542	1000
1	14237	18.989957572026	1000
1	14261	18.998060466607	1000
1	14281	19.013231915103	1000
1	14299	19.029311787425	1000
1	14317	19.057748558956	1000
1	14335	19.077053742727	1000
1	14352	19.081522698419	1000
1	14369	19.089802958124	1000
1	14389	19.104322275835	1000
1	14399	19.106110358852	1000
1	14416	19.108698280294	1000
1	14433	19.116569478556	1000
1	14451	19.12081954346	1000
1	14479	19.144634291915	1000
1	14496	19.155225004749	1000
1	14514	19.160369782448	1000
1	14533	19.183042226008	1000
1	14551	19.202651816683	1000
1	14569	19.279571119389	1000
1	14587	19.302123084377	1000
1	14604	19.308545662712	1000
1	14614	19.3101823589	1000
1	14641	19.332221501033	1000
1	14651	19.332960915842	1000
1	14668	19.338135318822	1000
1	14695	19.368404824717	1000
1	14713	19.407263509573	1000
1	14730	19.419542159006	1000
1	14748	19.43354414534	1000
1	14759	19.434064729723	1000
1	14783	19.442735155651	1000
1	14801	19.45223402214	1000
1	14820	19.457222039398	1000
1	14830	19.458074795996	1000
1	14834	19.461194160797	1000
1	14864	19.466511864279	1000
1	14883	19.473366034904	1000
1	14909	19.484092366768	1000
1	14929	19.499470888804	1000
1	14946	19.50405712078	1000
1	14963	19.508844127638	1000
1	14973	19.509082784926	1000
1	14977	19.509583589547	1000
1	14981	19.513161578684	1000
1	15035	19.529337775192	1000
1	15054	19.541214240046	1000
1	15073	19.558839348999	1000
1	15091	19.576419215457	1000
1	15109	19.599721901498	1000
1	15127	19.615011180302	1000
1	15145	19.661376214978	1000
1	15163	19.688867083641	1000
1	15180	19.699470560763	1000
1	15198	19.710115937199	1000
1	15208	19.710534352264	1000
1	15235	19.788776340496	1000
1	15245	19.790469242919	1000
1	15270	19.806650161936	1000
1	15289	19.827295614721	1000
1	15306	19.832898363223	1000
1	15316	19.835528959353	1000
1	15320	19.836776762095	1000
1	15360	19.85334556876	1000
1	15378	19.860577648082	1000
1	15397	19.875586973509	1000
1	15415	19.90522590988	1000
1	15425	19.907128004138	1000
1	15451	19.937313038418	1000
1	15468	19.943677757509	1000
1	15485	19.948048489875	1000
1	15505	19.982438052453	1000
1	15528	20.038508774158	1000
1	15538	20.039213027463	1000
1	15563	20.054537472125	1000
1	15582	20.072513360331	1000
1	15600	20.088393765682	1000
1	15610	20.090298097307	1000
1	15634	20.097557100788	1000
1	15652	20.103630335366	1000
1	15670	20.109478763561	1000
1	15680	20.110327603165	1000
1	15708	20.129072801064	1000
1	15718	20.12913209684	1000
1	15722	20.131271052031	1000
1	15760	20.145592485426	1000
1	15771	20.148688898781	1000
1	15798	20.171218067671	1000
1	15815	20.182262425612	1000
1	15842	20.199055499057	1000
1	15860	20.20212673665	1000
1	15885	20.218828740772	1000
1	15903	20.240527295687	1000
1	15920	20.249898383467	1000
1	15930	20.250231781071	1000
1	15948	20.255037026319	1000
1	15973	20.265769687014	1000
1	15993	20.299155230344	1000
1	16003	20.302098430204	1000
1	16007	20.302634830235	1000
1	16045	20.313510490507	1000
1	16064	20.322855186978	1000
1	16082	20.329115671786	1000
1	16101	20.365951634672	1000
1	16111	20.367008277178	1000
1	16137	20.403224565476	1000
1	16147	20.403651958997	1000
1	16171	20.412942798674	1000
1	16208	20.447887450272	1000
1	16225	20.455320723285	1000
1	16235	20.456722467483	1000
1	16262	20.498287540848	1000
1	16279	20.505496310615	1000
1	16298	20.525784800097	1000
1	16315	20.539517336779	1000
1	16333	20.545763583218	1000
1	16387	20.594247493355	1000
1	16406	20.607092728972	1000
1	16425	20.624092329034	1000
1	16435	20.624355214855	1000
1	16459	20.635629076377	1000
1	16499	20.670475659889	1000
1	16509	20.673800731721	1000
1	16526	20.677257683323	1000
1	16553	20.700038747442	1000
1	16571	20.734913814094	1000
1	16588	20.740482927347	1000
1	16606	20.753998005528	1000
1	16625	20.783670945685	1000
1	16635	20.784870426498	1000
1	16659	20.792832136035	1000
1	16679	20.811044756469	1000
1	16696	20.823591197267	1000
1	16706	20.825214329218	1000
1	16733	20.848809961302	1000
1	16750	20.860360274069	1000
1	16769	20.896468539322	1000
1	16786	20.907518227638	1000
1	16805	20.927740140499	1000
1	16823	20.980212980818	1000
1	16841	20.998796007595	1000
1	16858	21.006908658481	1000
1	16876	21.017563212063	1000
1	16894	21.027781803776	1000
1	16904	21.028390462051	1000
1	16922	21.034229748534	1000
1	16939	21.040813660122	1000
1	16957	21.042479724454	1000
1	16961	21.042985928903	1000
1	16965	21.043043034663	1000
1	16983	21.048338724257	1000
1	17001	21.051672012425	1000
1	17033	21.061398583925	1000
1	17075	21.092312537816	1000
1	17085	21.092790498384	1000
1	17102	21.099647307116	1000
1	17128	21.112865952592	1000
1	17138	21.113921538174	1000
1	17163	21.125281602309	1000
1	17181	21.13080887709	1000
1	17201	21.148200727514	1000
1	17211	21.151614814292	1000
1	17228	21.153196571764	1000
1	17232	21.154555168547	1000
1	17263	21.162747941109	1000
1	17289	21.172656167091	1000
1	17300	21.175618999667	1000
1	17325	21.185222425279	1000
1	17345	21.20040633612	1000
1	17355	21.203855368683	1000
1	17359	21.203977972178	1000
1	17399	21.225316979851	1000
1	17417	21.24758704045	1000
1	17434	21.253278662526	1000
1	17453	21.286693386825	1000
1	17471	21.307732851052	1000
1	17488	21.312314544443	1000
1	17506	21.323255931059	1000
1	17524	21.329468553986	1000
1	17534	21.330959909638	1000
1	17551	21.33734207994	1000
1	17579	21.359610619092	1000
1	17596	21.368496223174	1000
1	17614	21.379746445724	1000
1	17632	21.385099529039	1000
1	17642	21.387419677718	1000
1	17667	21.397548407948	1000
1	17686	21.407178001526	1000
1	17705	21.444696199759	1000
1	17715	21.444809031451	1000
1	17741	21.472220649004	1000
1	17759	21.503440157713	1000
1	17769	21.506743254073	1000
1	17773	21.50730429222	1000
1	17813	21.529978859811	1000
1	17823	21.532200019859	1000
1	17840	21.538267772171	1000
1	17865	21.545511799424	1000
1	17883	21.550228291523	1000
1	17901	21.556900835706	1000
1	17919	21.561375303016	1000
1	17937	21.57031423159	1000
1	17947	21.570804308948	1000
1	17973	21.581531883259	1000
1	17983	21.583522937598	1000
1	18011	21.628482363606	1000
1	18028	21.64093060602	1000
1	18038	21.64102601861	1000
1	18042	21.6415042533	1000
1	18047	21.645276364308	1000
1	18099	21.662600211844	1000
1	18109	21.663761836776	1000
1	18135	21.676780743213	1000
1	18154	21.686404925194	1000
1	18172	21.693288670322	1000
1	18182	21.695631176198	1000
1	18186	21.696030376126	1000
1	18217	21.704648752304	1000
1	18243	21.713322366303	1000
1	18253	21.713502511862	1000
1	18279	21.725848490239	1000
1	18297	21.731229673919	1000
1	18315	21.739106999242	1000
1	18334	21.746480949666	1000
1	18352	21.760832624243	1000
1	18370	21.769301219366	1000
1	18387	21.774846636073	1000
1	18398	21.777471926111	1000
1	18402	21.777835966232	1000
1	18419	21.780912974374	1000
1	18458	21.79258127525	1000
1	18469	21.796164423381	1000
1	18496	21.809788783439	1000
1	18515	21.843077259103	1000
1	18525	21.846634986313	1000
1	18551	21.864472753685	1000
1	18568	21.877283645193	1000
1	18586	21.883405262523	1000
1	18605	21.898108745622	1000
1	18615	21.902045354085	1000
1	18632	21.906314811703	1000
1	18656	21.912454562813	1000
1	18675	21.919068112697	1000
1	18694	21.92871135809	1000
1	18712	21.934513413305	1000
1	18731	21.957725774153	1000
1	18748	21.969752495167	1000
1	18767	21.999180709004	1000
1	18784	22.004654390024	1000
1	18803	22.054788459874	1000
1	18821	22.069697259234	1000
1	18839	22.087242062642	1000
1	18856	22.097597354162	1000
1	18875	22.122960042893	1000
1	18885	22.124196696431	1000
1	18911	22.142356568107	1000
1	18928	22.155026366131	1000
1	18947	22.177091939709	1000
1	18965	22.202456096012	1000
1	18982	22.20995923118	1000
1	19001	22.24933079616	1000
1	19019	22.269513281465	1000
1	19037	22.293911974095	1000
1	19047	22.294067504778	1000
1	19073	22.329434094066	1000
1	19083	22.332960888211	1000
1	19108	22.344899598624	1000
1	19126	22.35221849433	1000
1	19144	22.363573047899	1000
1	19162	22.374012192407	1000
1	19181	22.391715743014	1000
1	19198	22.401339200158	1000
1	19216	22.411189256325	1000
1	19234	22.421940471499	1000
1	19244	22.424897623089	1000
1	19270	22.438702407192	1000
1	19289	22.487639165419	1000
1	19307	22.518902631175	1000
1	19317	22.522116617985	1000
1	19343	22.567722917215	1000
1	19361	22.588996863678	1000
1	19379	22.629805835152	1000
1	19397	22.673930679439	1000
1	19414	22.681452961803	1000
1	19432	22.693276647301	1000
1	19443	22.6969923395	1000
1	19460	22.699800359753	1000
1	19484	22.706939693627	1000
1	19495	22.710401825485	1000
1	19523	22.733377850682	1000
1	19533	22.734100761437	1000
1	19550	22.738196344458	1000
1	19554	22.740543440046	1000
1	19558	22.74178882	1000
1	19589	22.750344087141	1000
1	19631	22.773499745232	1000
1	19648	22.780366045328	1000
1	19658	22.784065608018	1000
1	19685	22.80972640003	1000
1	19703	22.840205349354	1000
1	19720	22.848663096036	1000
1	19738	22.861542823111	1000
1	19748	22.862304474822	1000
1	19766	22.867316238209	1000
1	19783	22.873240513316	1000
1	19809	22.881690356034	1000
1	19829	22.904348150921	1000
1	19847	22.924249569639	1000
1	19857	22.924367477274	1000
1	19861	22.9263937735	1000
1	19878	22.932075379652	1000
1	19909	22.940685086791	1000
1	19936	22.951892104162	1000
1	19946	22.953763501207	1000
1	19972	22.968063718405	1000
1	19991	22.994636324163	1000
1	20001	22.997675193599	1000
1	20025	23.006990552621	1000
1	20045	23.061973700178	1000
1	20062	23.074371932856	1000
1	20072	23.075546647725	1000
1	20099	23.093359092995	1000
1	20116	23.101867330835	1000
1	20126	23.103292931898	1000
1	20151	23.111979993483	1000
1	20171	23.128869701364	1000
1	20181	23.130364790738	1000
1	20198	23.135650239843	1000
1	20202	23.136682116669	1000
1	20219	23.138653497461	1000
1	20223	23.139300601923	1000
1	20240	23.14237702162	1000
1	20259	23.149643764104	1000
1	20313	23.16845300922	1000
1	20332	23.18236486183	1000
1	20350	23.192992209388	1000
1	20369	23.244736630194	1000
1	20386	23.252213250215	1000
1	20405	23.281814958958	1000
1	20422	23.286740210779	1000
1	20439	23.293411785713	1000
1	20457	23.299487178129	1000
1	20476	23.310387629807	1000
1	20495	23.342656615539	1000
1	20513	23.360177332217	1000
1	20531	23.381722610326	1000
1	20549	23.400571292819	1000
1	20567	23.436985065126	1000
1	20577	23.438440402988	1000
1	20603	23.458650175958	1000
1	20620	23.472037061763	1000
1	20630	23.472436490954	1000
1	20648	23.478543370955	1000
1	20665	23.483144007464	1000
1	20669	23.484450984382	1000
1	20687	23.488901183749	1000
1	20704	23.490331872301	1000
1	20708	23.490378282233	1000
1	20764	23.516606539232	1000
1	20775	23.518653764636	1000
1	20799	23.526683148539	1000
1	20809	23.527367170918	1000
1	20837	23.547416740485	1000
1	20855	23.56434740989	1000
1	20873	23.584908802686	1000
1	20891	23.599965055019	1000
1	20909	23.622762951967	1000
1	20919	23.62699728344	1000
1	20936	23.630817213378	1000
1	20940	23.631333994943	1000
1	20981	23.674019804887	1000
1	20998	23.678403599057	1000
1	21008	23.681499896067	1000
1	21012	23.682348226558	1000
1	21043	23.689089936845	1000
1	21071	23.708931124149	1000
1	21088	23.713551886536	1000
1	21107	23.731741618126	1000
1	21125	23.749582340275	1000
1	21143	23.782666165633	1000
1	21153	23.786227857293	1000
1	21177	23.796782905336	1000
1	21197	23.828598811023	1000
1	21207	23.831810943187	1000
1	21224	23.833548922095	1000
1	21241	23.839294058319	1000
1	21269	23.868244137281	1000
1	21287	23.884857457589	1000
1	21297	23.885315833839	1000
1	21322	23.903123358138	1000
1	21340	23.910337425613	1000
1	21358	23.923508314025	1000
1	21377	23.938382816024	1000
1	21394	23.948044755663	1000
1	21412	23.962360289894	1000
1	21430	23.974464909583	1000
1	21448	23.988188313638	1000
1	21459	23.989504772322	1000
1	21484	24.006502724773	1000
1	21502	24.014605374827	1000
1	21512	24.017115995009	1000
1	21530	24.021595715195	1000
1	21555	24.033223585068	1000
1	21575	24.073083769194	1000
1	21585	24.075584025763	1000
1	21611	24.102663028125	1000
1	21628	24.115150843618	1000
1	21646	24.123408278151	1000
1	21663	24.128956423109	1000
1	21674	24.130962442797	1000
1	21678	24.132505259389	1000
1	21695	24.134189304887	1000
1	21699	24.137296619505	1000
1	21754	24.160274650171	1000
1	21765	24.163648945042	1000
1	21782	24.168938662223	1000
1	21809	24.201189323896	1000
1	21826	24.209043262556	1000
1	21844	24.219803714529	1000
1	21863	24.240978184503	1000
1	21873	24.242827977388	1000
1	21897	24.251983685325	1000
1	21907	24.253232099709	1000
1	21933	24.262623256376	1000
1	21952	24.273451278896	1000
1	21970	24.282929538371	1000
1	21988	24.288365589377	1000
1	22007	24.311006756048	1000
1	22024	24.315453154247	1000
1	22043	24.332776552214	1000
1	22060	24.339917524409	1000
1	22079	24.35956053907	1000
1	22097	24.378376490915	1000
1	22115	24.39901422152	1000
1	22132	24.413102172198	1000
1	22151	24.430126089186	1000
1	22169	24.448281893458	1000
1	22187	24.464982229119	1000
1	22204	24.470954771954	1000
1	22214	24.473594175483	1000
1	22241	24.515725332905	1000
1	22251	24.519278907204	1000
1	22277	24.566450365114	1000
1	22287	24.567743849489	1000
1	22313	24.588795641686	1000
1	22323	24.591647389816	1000
1	22349	24.612977987081	1000
1	22359	24.613838321325	1000
1	22385	24.638020425893	1000
1	22402	24.644523339473	1000
1	22421	24.675578558431	1000
1	22438	24.687914592651	1000
1	22456	24.696631644158	1000
1	22474	24.706682523276	1000
1	22492	24.715908761408	1000
1	22502	24.71767364993	1000
1	22528	24.731034767161	1000
1	22538	24.733397419142	1000
1	22565	24.755252333034	1000
1	22575	24.756032005561	1000
1	22601	24.793086407471	1000
1	22611	24.795021942188	1000
1	22615	24.797049688203	1000
1	22632	24.797921681886	1000
1	22636	24.79986930463	1000
1	22667	24.810108918375	1000
1	22698	24.815406452083	1000
1	22727	24.847994601104	1000
1	22744	24.8534692709	1000
1	22763	24.884736501674	1000
1	22773	24.885460732026	1000
1	22777	24.888441344834	1000
1	22817	24.91063487341	1000
1	22827	24.91277970169	1000
1	22844	24.916397058757	1000
1	22861	24.921964695083	1000
1	22887	24.932495261871	1000
1	22906	24.938472368576	1000
1	22916	24.942218903865	1000
1	22941	24.950227351323	1000
1	22960	24.959335182613	1000
1	22979	24.998707477025	1000
1	22996	25.012229937384	1000
1	23007	25.014790829312	1000
1	23033	25.031982924262	1000
1	23051	25.079632594249	1000
1	23061	25.081592921798	1000
1	23065	25.083717374331	1000
1	23082	25.085179061126	1000
1	23099	25.089301821554	1000
1	23139	25.103589535018	1000
1	23157	25.108445103716	1000
1	23167	25.109649003915	1000
1	23193	25.121576848975	1000
1	23213	25.13948408115	1000
1	23230	25.145715244475	1000
1	23248	25.158904003144	1000
1	23266	25.169574856649	1000
1	23284	25.181956757761	1000
1	23302	25.18853248781	1000
1	23320	25.196312856311	1000
1	23339	25.216558381136	1000
1	23356	25.227173618837	1000
1	23366	25.22836202697	1000
1	23370	25.228725727762	1000
1	23401	25.23731661755	1000
1	23427	25.246757143624	1000
1	23447	25.26708194503	1000
1	23465	25.282813374993	1000
1	23475	25.285878012586	1000
1	23501	25.304813111398	1000
1	23518	25.316715490268	1000
1	23529	25.31990295236	1000
1	23553	25.328607858257	1000
1	23564	25.331901537228	1000
1	23590	25.34725119076	1000
1	23601	25.351563313572	1000
1	23625	25.359803199045	1000
1	23645	25.387219703084	1000
1	23663	25.43967168208	1000
1	23681	25.477683789829	1000
1	23699	25.495344259813	1000
1	23709	25.497101273387	1000
1	23733	25.504673421596	1000
1	23753	25.546085205289	1000
1	23770	25.551310291018	1000
1	23780	25.553395341615	1000
1	23797	25.55594345506	1000
1	23822	25.565508181868	1000
1	23833	25.565771470931	1000
1	23860	25.583421230883	1000
1	23878	25.589403431705	1000
1	23888	25.592436744396	1000
1	23905	25.596573644601	1000
1	23933	25.616077042697	1000
1	23943	25.616531722557	1000
1	23968	25.634236946795	1000
1	23987	25.6514777419	1000
1	23997	25.652498440973	1000
1	24023	25.673835303895	1000
1	24033	25.676100820516	1000
1	24037	25.677861017302	1000
1	24054	25.680045053849	1000
1	24058	25.680078195646	1000
1	24089	25.689227048566	1000
1	24107	25.694751982382	1000
1	24124	25.696607337084	1000
1	24167	25.720973195114	1000
1	24184	25.72944073205	1000
1	24201	25.73458629962	1000
1	24219	25.743716233958	1000
1	24239	25.763595336428	1000
1	24249	25.765844814282	1000
1	24275	25.789934874104	1000
1	24292	25.800501463594	1000
1	24310	25.81197219705	1000
1	24328	25.822628781988	1000
1	24338	25.825630629603	1000
1	24356	25.828081586369	1000
1	24380	25.835867758701	1000
1	24398	25.841154825376	1000
1	24409	25.844461280348	1000
1	24435	25.854907607634	1000
1	24455	25.878178303611	1000
1	24472	25.887945759861	1000
1	24491	25.916386267497	1000
1	24509	25.931525278996	1000
1	24527	25.959208888504	1000
1	24537	25.961912299495	1000
1	24561	25.972533775842	1000
1	24579	25.977789841537	1000
1	24599	25.994126960142	1000
1	24616	26.00129837889	1000
1	24633	26.007674416522	1000
1	24644	26.009525927763	1000
1	24661	26.014779701425	1000
1	24688	26.028004043049	1000
1	24706	26.036534219704	1000
1	24724	26.045320167326	1000
1	24742	26.057855312495	1000
1	24753	26.061728186928	1000
1	24770	26.064721209603	1000
1	24797	26.105935248503	1000
1	24807	26.10771490039	1000
1	24811	26.108728506586	1000
1	24849	26.123323089677	1000
1	24868	26.135822797301	1000
1	24886	26.141385775368	1000
1	24896	26.142344509162	1000
1	24913	26.146278726148	1000
1	24917	26.147049663451	1000
1	24959	26.201301050876	1000
1	24976	26.21556641034	1000
1	24994	26.222351758342	1000
1	25013	26.252620066012	1000
1	25030	26.262621279914	1000
1	25049	26.277528645863	1000
1	25066	26.286009995839	1000
1	25085	26.307027402711	1000
1	25103	26.355537421348	1000
1	25120	26.361912371043	1000
1	25130	26.363824503295	1000
1	25148	26.36999135798	1000
1	25175	26.389168107501	1000
1	25185	26.389170348277	1000
1	25211	26.426275886583	1000
1	25228	26.439310678375	1000
1	25246	26.443774714601	1000
1	25263	26.451850647005	1000
1	25274	26.455530135022	1000
1	25299	26.462401085423	1000
1	25318	26.474601683479	1000
1	25336	26.488054823734	1000
1	25354	26.49273181483	1000
1	25364	26.493010623713	1000
1	25381	26.498692872293	1000
1	25399	26.504340175494	1000
1	25424	26.510713013854	1000
1	25445	26.551193247329	1000
1	25463	26.593310795807	1000
1	25473	26.595242883335	1000
1	25499	26.624604868	1000
1	25517	26.670658793941	1000
1	25527	26.674217813131	1000
1	25553	26.690430047038	1000
1	25563	26.692745127633	1000
1	25587	26.700408254684	1000
1	25606	26.711621851488	1000
1	25616	26.713997241984	1000
1	25641	26.723504477358	1000
1	25661	26.739615541833	1000
1	25678	26.752825959259	1000
1	25696	26.764781221575	1000
1	25706	26.766321117659	1000
1	25733	26.80391060899	1000
1	25743	26.805733286491	1000
1	25767	26.817101649219	1000
1	25778	26.818766332326	1000
1	25803	26.828076941272	1000
1	25823	26.852325003569	1000
1	25840	26.86426529155	1000
1	25859	26.89297366146	1000
1	25876	26.905868108396	1000
1	25894	26.913160546052	1000
1	25912	26.920708251746	1000
1	25922	26.923561819097	1000
1	25949	26.960474987793	1000
1	25966	26.964943867075	1000
1	25983	26.971072692229	1000
1	25993	26.971435599392	1000
1	26011	26.977327995108	1000
1	26015	26.978817157921	1000
1	26033	26.981366948049	1000
1	26074	27.000068367404	1000
1	26092	27.007736595669	1000
1	26111	27.029559190994	1000
1	26128	27.034237521215	1000
1	26145	27.040035970687	1000
1	26165	27.061451083258	1000
1	26175	27.062291409583	1000
1	26201	27.082897187268	1000
1	26211	27.085656032784	1000
1	26236	27.098424141715	1000
1	26254	27.107557901189	1000
1	26273	27.12624491441	1000
1	26291	27.143699683678	1000
1	26308	27.153979089575	1000
1	26326	27.164408806881	1000
1	26345	27.180316212609	1000
1	26362	27.191632858198	1000
1	26380	27.201457155461	1000
1	26398	27.209719737247	1000
1	26417	27.247621519482	1000
1	26427	27.250622147058	1000
1	26451	27.257517863778	1000
1	26469	27.264029527605	1000
1	26488	27.274628337865	1000
1	26506	27.288444254139	1000
1	26517	27.291468498715	1000
1	26541	27.301371034887	1000
1	26561	27.33173824053	1000
1	26571	27.334942556626	1000
1	26588	27.336351807401	1000
1	26592	27.340281069961	1000
1	26630	27.349936472082	1000
1	26649	27.357164780067	1000
1	26667	27.364130870361	1000
1	26686	27.376873557244	1000
1	26705	27.406666362311	1000
1	26715	27.409133876576	1000
1	26732	27.414276967563	1000
1	26756	27.42011378397	1000
1	26767	27.422111687045	1000
1	26795	27.448654176305	1000
1	26813	27.480991652401	1000
1	26831	27.566683018048	1000
1	26841	27.569932257748	1000
1	26845	27.570825732608	1000
1	26862	27.572753020331	1000
1	26902	27.593388450525	1000
1	26921	27.625244529372	1000
1	26938	27.63052330906	1000
1	26957	27.669923055773	1000
1	26975	27.689054786251	1000
1	26992	27.694288836038	1000
1	27011	27.717130752151	1000
1	27028	27.729424137422	1000
1	27046	27.736521703895	1000
1	27063	27.743737834401	1000
1	27083	27.783017745447	1000
1	27093	27.78717882841	1000
1	27118	27.800471687932	1000
1	27137	27.820040250648	1000
1	27154	27.825881331102	1000
1	27171	27.833371278989	1000
1	27190	27.845707046132	1000
1	27208	27.856341458867	1000
1	27227	27.872197694027	1000
1	27245	27.895423577666	1000
1	27262	27.904787487526	1000
1	27281	27.943241125124	1000
1	27291	27.94720211535	1000
1	27308	27.948031188674	1000
1	27325	27.953852181235	1000
1	27353	27.993774037644	1000
1	27371	28.011097731518	1000
1	27381	28.013728924317	1000
1	27407	28.060497868112	1000
1	27425	28.075042627043	1000
1	27443	28.094310125027	1000
1	27453	28.0949746172	1000
1	27478	28.110364638359	1000
1	27496	28.118295733055	1000
1	27515	28.137308364246	1000
1	27533	28.152416175538	1000
1	27543	28.154745292603	1000
1	27569	28.18486356291	1000
1	27586	28.195208218213	1000
1	27604	28.201055990833	1000
1	27614	28.204156676695	1000
1	27641	28.222520826068	1000
1	27659	28.264883819896	1000
1	27677	28.280843712627	1000
1	27694	28.292138819396	1000
1	27713	28.328168568288	1000
1	27731	28.34308826911	1000
1	27748	28.350404372062	1000
1	27765	28.355061542745	1000
1	27776	28.357571030643	1000
1	27803	28.382398344967	1000
1	27821	28.397798400061	1000
1	27839	28.443642076687	1000
1	27849	28.444580253904	1000
1	27866	28.449115458173	1000
1	27883	28.45537531755	1000
1	27911	28.49478984934	1000
1	27928	28.505512070887	1000
1	27946	28.519188424642	1000
1	27957	28.522979137852	1000
1	27974	28.52655173781	1000
1	27991	28.53158842402	1000
1	28008	28.53264125098	1000
1	28037	28.566305687403	1000
1	28054	28.572539262516	1000
1	28064	28.575224511768	1000
1	28081	28.580280244331	1000
1	28099	28.582894968109	1000
1	28116	28.586440946994	1000
1	28144	28.603446739722	1000
1	28155	28.606708791572	1000
1	28180	28.621110291364	1000
1	28198	28.631908378311	1000
1	28208	28.633789387477	1000
1	28235	28.651101661702	1000
1	28253	28.674099130049	1000
1	28271	28.711578498272	1000
1	28289	28.749908506023	1000
1	28307	28.764613756277	1000
1	28317	28.768746386124	1000
1	28334	28.769210174184	1000
1	28351	28.77514626381	1000
1	28378	28.790998034747	1000
1	28397	28.824887369853	1000
1	28407	28.826333606095	1000
1	28431	28.835710580095	1000
1	28449	28.843437693141	1000
1	28460	28.843999375378	1000
1	28485	28.856620489093	1000
1	28505	28.881343658872	1000
1	28522	28.888779132353	1000
1	28540	28.897668684473	1000
1	28550	28.90001779589	1000
1	28554	28.901567058219	1000
1	28593	28.912985343684	1000
1	28613	28.92810805789	1000
1	28623	28.932175819059	1000
1	28647	28.940480404593	1000
1	28667	28.97853841259	1000
1	28677	28.978945109654	1000
1	28681	28.982172429223	1000
1	28698	28.983477534645	1000
1	28738	29.004188684931	1000
1	28757	29.062499304279	1000
1	28767	29.06458767421	1000
1	28793	29.081314798554	1000
1	28803	29.085380464809	1000
1	28827	29.090163732796	1000
1	28847	29.122048840426	1000
1	28865	29.137008195091	1000
1	28883	29.157068711408	1000
1	28900	29.164347093542	1000
1	28917	29.169103897598	1000
1	28927	29.170890168766	1000
1	28953	29.182672227603	1000
1	28972	29.1963392559	1000
1	28991	29.228318702022	1000
1	29001	29.229923190057	1000
1	29026	29.245953163246	1000
1	29044	29.255443342333	1000
1	29062	29.262778391247	1000
1	29081	29.279554829825	1000
1	29098	29.290770593341	1000
1	29108	29.292071701746	1000
1	29126	29.298590986754	1000
1	29153	29.363897784461	1000
1	29171	29.381407015875	1000
1	29189	29.398662129479	1000
1	29207	29.429306441963	1000
1	29225	29.44499116024	1000
1	29243	29.467596448621	1000
1	29260	29.473748044024	1000
1	29277	29.479880844972	1000
1	29297	29.517648393071	1000
1	29315	29.534649121364	1000
1	29332	29.542297481499	1000
1	29350	29.550368128776	1000
1	29360	29.550568887891	1000
1	29364	29.553701113968	1000
1	29395	29.561349172971	1000
1	29413	29.565523433142	1000
1	29441	29.613610050347	1000
1	29451	29.615083144978	1000
1	29475	29.623535049947	1000
1	29485	29.623654594622	1000
1	29489	29.627472593189	1000
1	29507	29.630522491037	1000
1	29546	29.64167163929	1000
1	29567	29.667859322184	1000
1	29584	29.677888120004	1000
1	29602	29.690285471676	1000
1	29613	29.694226243643	1000
1	29630	29.698659310755	1000
1	29655	29.706953226319	1000
1	29674	29.717040739021	1000
1	29692	29.726525333118	1000
1	29702	29.730139345742	1000
1	29720	29.732032860823	1000
1	29737	29.737546323656	1000
1	29765	29.755942685807	1000
1	29782	29.766822722449	1000
1	29792	29.769231575412	1000
1	29810	29.772418204253	1000
1	29837	29.800563141672	1000
1	29854	29.806617047262	1000
1	29873	29.829682272485	1000
1	29891	29.875197746908	1000
1	29908	29.880513270473	1000
1	29918	29.880669292597	1000
1	29944	29.896283414886	1000
1	29962	29.904256688796	1000
1	29981	29.930465976047	1000
1	29991	29.932690790478	1000
1	30008	29.936035419582	1000
1	30032	29.943691187915	1000
1	30043	29.945442264505	1000
1	30061	29.950803973873	1000
1	30065	29.950992207146	1000
1	30106	29.970412766149	1000
1	30117	29.971686483824	1000
1	30141	29.98255834993	1000
1	30152	29.986207849215	1000
1	30156	29.986573544961	1000
1	30173	29.987967841142	1000
1	30218	30.002384162493	1000
1	30238	30.041714911934	1000
1	30255	30.046928828484	1000
1	30294	30.07388016843	1000
1	30304	30.076276833323	1000
1	30330	30.093591050701	1000
1	30340	30.094350744868	1000
1	30357	30.10180649658	1000
1	30361	30.101872804737	1000
1	30402	30.12181995745	1000
1	30420	30.157885964653	1000
1	30430	30.158314826024	1000
1	30456	30.190904130314	1000
1	30474	30.208743018304	1000
1	30491	30.214077137114	1000
1	30527	30.242823618621	1000
1	30537	30.247039727718	1000
1	30561	30.253356996541	1000
1	30571	30.254577552733	1000
1	30597	30.267415715234	1000
1	30608	30.267776288486	1000
1	30626	30.275737142083	1000
1	30668	30.289530648568	1000
1	30687	30.310191021111	1000
1	30697	30.312140420887	1000
1	30723	30.328973914504	1000
1	30760	30.344210011429	1000
1	30778	30.354050071004	1000
1	30796	30.364593519727	1000
1	30806	30.365742016368	1000
1	30831	30.376751644782	1000
1	30849	30.382517572656	1000
1	30869	30.406778968475	1000
1	30886	30.41128574759	1000
1	30904	30.421598863207	1000
1	30922	30.428272325474	1000
1	30941	30.453347385946	1000
1	30951	30.456862401776	1000
1	30968	30.457847369781	1000
1	30994	30.474418549265	1000
[...]
37	91350	71.327931584294	3
37	91361	71.332283584294	2
37	91362	71.332283584294	3
37	91379	71.336635584294	2
37	91380	71.336635584294	3
37	91396	71.340987584294	2
37	91397	71.340987584294	3
37	91408	71.345339584294	1
37	91423	71.356616464284	3
37	91428	71.360968464284	1
37	91440	71.3703555476	3
37	91446	71.3747075476	1
37	91459	71.392412158739	3
37	91464	71.396764158739	1
37	91476	71.399618280465	3
37	91487	71.403970280465	2
37	91488	71.403970280465	3
37	91499	71.408322280465	1
37	91511	71.410084118039	3
37	91523	71.414436118039	2
37	91524	71.414436118039	3
37	91541	71.418788118039	2
37	91542	71.418788118039	3
37	91558	71.423140118039	2
37	91559	71.423140118039	3
37	91570	71.427492118039	1
37	91585	71.442344203632	3
37	91596	71.446696203632	2
37	91597	71.446696203632	3
37	91607	71.451048203632	1
37	91619	71.451724542013	3
37	91624	71.456076542013	1
37	91637	71.457560824987	3
37	91643	71.461912824987	1
37	91657	71.479962637844	3
37	91662	71.484314637844	1
37	91674	71.489858796579	3
37	91679	71.494210796579	1
37	91692	71.497590044133	3
37	91697	71.501942044133	1
37	91710	71.508471893957	3
37	91722	71.512823893957	2
37	91723	71.512823893957	3
37	91733	71.517175893957	1
37	91745	71.520483954208	3
37	91751	71.524835954208	1
37	91763	71.525654042294	3
37	91775	71.530006042294	2
37	91776	71.530006042294	3
37	91786	71.534358042294	1
37	91801	71.545851581494	3
37	91806	71.550203581494	1
37	91818	71.551221950098	3
37	91833	71.555573950098	2
37	91834	71.555573950098	3
37	91854	71.559925950098	2
37	91855	71.559925950098	3
37	91872	71.564277950098	2
37	91873	71.564277950098	3
37	91886	71.568629950098	2
37	91887	71.568629950098	3
37	91900	71.572981950098	2
37	91901	71.572981950098	3
37	91912	71.577333950098	1
37	91924	71.578309532269	3
37	91930	71.582661532269	1
37	91943	71.583824585377	3
37	91949	71.588176585377	1
37	91963	71.602931124443	3
37	91968	71.607283124443	1
37	91980	71.613547647262	3
37	91986	71.617899647262	1
37	91998	71.618727515548	3
37	92013	71.623079515548	2
37	92014	71.623079515548	3
37	92030	71.627431515548	2
37	92031	71.627431515548	3
37	92044	71.631783515548	2
37	92045	71.631783515548	3
37	92062	71.636135515548	2
37	92063	71.636135515548	3
37	92080	71.640487515548	2
37	92081	71.640487515548	3
37	92092	71.644839515548	1
37	92107	71.657748008153	3
37	92122	71.662100008153	2
37	92123	71.662100008153	3
37	92139	71.666452008153	2
37	92140	71.666452008153	3
37	92152	71.670804008153	2
37	92153	71.670804008153	3
37	92170	71.675156008153	2
37	92171	71.675156008153	3
37	92182	71.679508008153	1
37	92196	71.68779154611	3
37	92202	71.69214354611	1
37	92215	71.715870472744	3
37	92226	71.720222472744	2
37	92227	71.720222472744	3
37	92243	71.724574472744	2
37	92244	71.724574472744	3
37	92254	71.728926472744	1
37	92266	71.729781147045	3
37	92278	71.734133147045	2
37	92279	71.734133147045	3
37	92290	71.738485147045	1
37	92305	71.784051079275	3
37	92320	71.788403079275	2
37	92321	71.788403079275	3
37	92333	71.792755079275	2
37	92334	71.792755079275	3
37	92344	71.797107079275	1
37	92358	71.803888473952	3
37	92364	71.808240473952	1
37	92376	71.809748979718	3
37	92381	71.814100979718	1
37	92394	71.819661942823	3
37	92399	71.824013942823	1
37	92413	71.839940078839	3
37	92418	71.844292078839	1
37	92430	71.853130503934	3
37	92436	71.857482503934	1
37	92448	71.864232999011	3
37	92454	71.868584999011	1
37	92466	71.877974792319	3
37	92482	71.882326792319	2
37	92483	71.882326792319	3
37	92495	71.886678792319	2
37	92496	71.886678792319	3
37	92506	71.891030792319	1
37	92518	71.891230747341	3
37	92524	71.895582747341	1
37	92537	71.896734182743	3
37	92543	71.901086182743	1
37	92557	71.962163527904	3
37	92562	71.966515527904	1
37	92575	71.982785124611	3
37	92580	71.987137124611	1
37	92593	72.014107243477	3
37	92604	72.018459243477	2
37	92605	72.018459243477	3
37	92615	72.022811243477	1
37	92627	72.028256760097	3
37	92639	72.032608760097	2
37	92640	72.032608760097	3
37	92651	72.036960760097	1
37	92664	72.044538792041	3
37	92676	72.048890792041	2
37	92677	72.048890792041	3
37	92687	72.053242792041	1
37	92699	72.058509681793	3
37	92711	72.062861681793	2
37	92712	72.062861681793	3
37	92723	72.067213681793	1
37	92735	72.072108472737	3
37	92751	72.076460472737	2
37	92752	72.076460472737	3
37	92765	72.080812472737	2
37	92766	72.080812472737	3
37	92776	72.085164472737	1
37	92789	72.090138178949	3
37	92795	72.094490178949	1
37	92808	72.097283003381	3
37	92813	72.101635003381	1
37	92827	72.112741289558	3
37	92838	72.117093289558	2
37	92839	72.117093289558	3
37	92849	72.121445289558	1
37	92861	72.122501921815	3
37	92876	72.126853921815	2
37	92877	72.126853921815	3
37	92890	72.131205921815	2
37	92891	72.131205921815	3
37	92902	72.135557921815	1
37	92916	72.143447832173	3
37	92932	72.147799832173	2
37	92933	72.147799832173	3
37	92953	72.152151832173	2
37	92954	72.152151832173	3
37	92966	72.156503832173	2
37	92967	72.156503832173	3
37	92980	72.160855832173	2
37	92981	72.160855832173	3
37	92992	72.165207832173	1
37	93006	72.173685437559	3
37	93012	72.178037437559	1
37	93024	72.184382933265	3
37	93030	72.188734933265	1
37	93043	72.203245692232	3
37	93054	72.207597692232	2
37	93055	72.207597692232	3
37	93065	72.211949692232	1
37	93078	72.218626876775	3
37	93084	72.222978876775	1
37	93097	72.246127519502	3
37	93102	72.250479519502	1
37	93114	72.255289209042	3
37	93119	72.259641209042	1
37	93133	72.279839809766	3
37	93144	72.284191809766	2
37	93145	72.284191809766	3
37	93155	72.288543809766	1
37	93169	72.323699664265	3
37	93180	72.328051664265	2
37	93181	72.328051664265	3
37	93191	72.332403664265	1
37	93204	72.341877175689	3
37	93220	72.346229175689	2
37	93221	72.346229175689	3
37	93233	72.350581175689	2
37	93234	72.350581175689	3
37	93244	72.354933175689	1
37	93256	72.355897573689	3
37	93262	72.360249573689	1
37	93274	72.360473090253	3
37	93286	72.364825090253	2
37	93287	72.364825090253	3
37	93298	72.369177090253	1
37	93311	72.370432507927	3
37	93316	72.374784507927	1
37	93331	72.423935709335	3
37	93336	72.428287709335	1
37	93348	72.435953891977	3
37	93360	72.440305891977	2
37	93361	72.440305891977	3
37	93371	72.444657891977	1
37	93385	72.491013517911	3
37	93396	72.495365517911	2
37	93397	72.495365517911	3
37	93407	72.499717517911	1
37	93421	72.510202352701	3
37	93432	72.514554352701	2
37	93433	72.514554352701	3
37	93443	72.518906352701	1
37	93457	72.5317327075	3
37	93462	72.5360847075	1
37	93474	72.544126067001	3
37	93480	72.548478067001	1
37	93492	72.554329486923	3
37	93498	72.558681486923	1
37	93510	72.561699187382	3
37	93521	72.566051187382	2
37	93522	72.566051187382	3
37	93533	72.570403187382	1
37	93546	72.576319099229	3
37	93552	72.580671099229	1
37	93565	72.601209925104	3
37	93576	72.605561925104	2
37	93577	72.605561925104	3
37	93587	72.609913925104	1
37	93600	72.617422841164	3
37	93606	72.621774841164	1
37	93619	72.642858259857	3
37	93624	72.647210259857	1
37	93636	72.654371387947	3
37	93648	72.658723387947	2
37	93649	72.658723387947	3
37	93659	72.663075387947	1
37	93671	72.663155884492	3
37	93676	72.667507884492	1
37	93691	72.679734184693	3
37	93696	72.684086184693	1
37	93708	72.685218235924	3
37	93723	72.689570235924	2
37	93724	72.689570235924	3
37	93740	72.693922235924	2
37	93741	72.693922235924	3
37	93758	72.698274235924	2
37	93759	72.698274235924	3
37	93776	72.702626235924	2
37	93777	72.702626235924	3
37	93790	72.706978235924	2
37	93791	72.706978235924	3
37	93802	72.711330235924	1
37	93817	72.721821159549	3
37	93828	72.726173159549	2
37	93829	72.726173159549	3
37	93839	72.730525159549	1
37	93851	72.731165037528	3
37	93856	72.735517037528	1
37	93871	72.751363788016	3
37	93876	72.755715788016	1
37	93889	72.770289602479	3
37	93900	72.774641602479	2
37	93901	72.774641602479	3
37	93917	72.778993602479	2
37	93918	72.778993602479	3
37	93938	72.783345602479	2
37	93939	72.783345602479	3
37	93952	72.787697602479	2
37	93953	72.787697602479	3
37	93970	72.792049602479	2
37	93971	72.792049602479	3
37	93988	72.796401602479	2
37	93989	72.796401602479	3
37	94000	72.800753602479	1
37	94013	72.804615069609	3
37	94019	72.808967069609	1
37	94032	72.815253228742	3
37	94038	72.819605228742	1
37	94050	72.8264359383	3
37	94056	72.8307879383	1
37	94069	72.860350892616	3
37	94080	72.864702892616	2
37	94081	72.864702892616	3
37	94091	72.869054892616	1
37	94105	72.890963372953	3
37	94124	72.895315372953	2
37	94125	72.895315372953	3
37	94137	72.899667372953	2
37	94138	72.899667372953	3
37	94150	72.904019372953	2
37	94151	72.904019372953	3
37	94168	72.908371372953	2
37	94169	72.908371372953	3
37	94180	72.912723372953	1
37	94193	72.914798677218	3
38	2741	10.66860584286	1
38	2742	10.66860584286	2
38	2747	10.66884584286	1
38	2747	10.66884584286	0
38	15836	20.198892214336	1
38	15837	20.198892214336	2
38	15852	20.199132214336	1
38	15852	20.199132214336	0
38	31636	30.891062313924	1
38	31637	30.891062313924	2
38	31642	30.891302313924	1
38	31642	30.891302313924	0
38	46245	40.82857068209	1
38	46246	40.82857068209	2
38	46251	40.82881068209	1
38	46251	40.82881068209	0
38	60853	50.624254393391	1
38	60854	50.624254393391	2
38	60859	50.624494393391	1
38	60859	50.624494393391	0
38	76186	60.121299766004	1
38	76187	60.121299766004	2
38	76192	60.121539766004	1
38	76192	60.121539766004	0
38	90405	70.618942754343	1
38	90406	70.618942754343	2
38	90411	70.619182754343	1
38	90411	70.619182754343	0
42	3011	10.817339114379	40
42	16353	20.585628132336	40
42	30741	30.33911841712	40
42	46406	40.904967643088	40
42	61275	50.902801559074	40
42	77098	60.834672146477	40
42	89924	70.209561849944	40
44	3011	10.817339114379	0
44	16353	20.585628132336	0
44	30741	30.33911841712	0
44	46406	40.904967643088	0
44	61275	50.902801559074	0
44	77098	60.834672146477	0
44	89924	70.209561849944	0
45	0	0	0
46	2699	10.546158223947	40
46	2753	10.66884632249	40
46	15855	20.199132693966	40
46	16489	20.657078973552	40
46	30282	30.054918374236	40
46	31645	30.891302793554	40
46	46215	40.747622404083	40
46	46257	40.82881116172	40
46	60030	50.162932152696	40
46	60865	50.624494873021	40
46	76056	60.02980536858	40
46	76195	60.121540245634	40
46	90414	70.619183233973	40
46	90435	70.64905553155	40
47	3012	10.817339114379	60
47	16354	20.585628132336	60
47	30742	30.33911841712	60
47	46407	40.904967643088	60
47	61276	50.902801559074	60
47	77099	60.834672146477	60
47	89925	70.209561849944	60
48	3012	10.817339114379	40
48	16354	20.585628132336	40
48	30742	30.33911841712	40
48	46407	40.904967643088	40
48	61276	50.902801559074	40
48	77099	60.834672146477	40
48	89925	70.209561849944	40
49	2699	10.546158223947	60
49	2753	10.66884632249	60
49	15855	20.199132693966	60
49	16489	20.657078973552	60
49	30282	30.054918374236	60
49	31645	30.891302793554	60
49	46215	40.747622404083	60
49	46257	40.82881116172	60
49	60030	50.162932152696	60
49	60865	50.624494873021	60
49	76056	60.02980536858	60
49	76195	60.121540245634	60
49	90414	70.619183233973	60
49	90435	70.64905553155	60
51	0	0	0
51	0	0	2
51	3012	10.817339114379	3
51	3018	10.817579114379	2
51	16354	20.585628132336	3
51	16360	20.585868132336	2
51	30742	30.33911841712	3
51	30748	30.33935841712	2
51	46407	40.904967643088	3
51	46413	40.905207643088	2
51	61276	50.902801559074	3
51	61282	50.903041559074	2
51	77099	60.834672146477	3
51	77105	60.834912146477	2
51	89925	70.209561849944	3
51	89931	70.209801849944	2
52	0	0	1
52	2693	10.545918223947	3
52	2698	10.546158223947	1
52	2744	10.66860632249	3
52	2752	10.66884632249	1
52	3012	10.817339114379	0
52	3018	10.817579114379	1
52	15839	20.198892693966	3
52	15854	20.199132693966	1
52	16354	20.585628132336	0
52	16360	20.585868132336	1
52	16483	20.656838973552	3
52	16488	20.657078973552	1
52	30276	30.054678374236	3
52	30281	30.054918374236	1
52	30742	30.33911841712	0
52	30748	30.33935841712	1
52	31639	30.891062793554	3
52	31644	30.891302793554	1
52	46209	40.747382404083	3
52	46214	40.747622404083	1
52	46248	40.82857116172	3
52	46256	40.82881116172	1
52	46407	40.904967643088	0
52	46413	40.905207643088	1
52	60024	50.162692152696	3
52	60029	50.162932152696	1
52	60856	50.624254873021	3
52	60864	50.624494873021	1
52	61276	50.902801559074	0
52	61282	50.903041559074	1
52	76050	60.02956536858	3
52	76055	60.02980536858	1
52	76189	60.121300245634	3
52	76194	60.121540245634	1
52	77099	60.834672146477	0
52	77105	60.834912146477	1
52	89925	70.209561849944	0
52	89931	70.209801849944	1
52	90408	70.618943233973	3
52	90413	70.619183233973	1
52	90429	70.64881553155	3
52	90434	70.64905553155	1
53	3012	10.817339114379	1
53	3013	10.817339114379	2
53	3018	10.817579114379	1
53	3018	10.817579114379	0
53	16354	20.585628132336	1
53	16355	20.585628132336	2
53	16360	20.585868132336	1
53	16360	20.585868132336	0
53	30742	30.33911841712	1
53	30743	30.33911841712	2
53	30748	30.33935841712	1
53	30748	30.33935841712	0
53	46407	40.904967643088	1
53	46408	40.904967643088	2
53	46413	40.905207643088	1
53	46413	40.905207643088	0
53	61276	50.902801559074	1
53	61277	50.902801559074	2
53	61282	50.903041559074	1
53	61282	50.903041559074	0
53	77099	60.834672146477	1
53	77100	60.834672146477	2
53	77105	60.834912146477	1
53	77105	60.834912146477	0
53	89925	70.209561849944	1
53	89926	70.209561849944	2
53	89931	70.209801849944	1
53	89931	70.209801849944	0
57	2690	10.545917597832	40
57	16480	20.656838347437	40
57	30273	30.054677748121	40
57	46206	40.747381777968	40
57	60021	50.162691526581	40
57	76047	60.029564742465	40
57	90426	70.648814905435	40
59	2690	10.545917597832	0
59	16480	20.656838347437	0
59	30273	30.054677748121	0
59	46206	40.747381777968	0
59	60021	50.162691526581	0
59	76047	60.029564742465	0
59	90426	70.648814905435	0
60	0	0	0
61	2664	10.473383627207	40
61	3024	10.817579740494	40
61	16366	20.585868758451	40
61	16381	20.591411583199	40
61	30653	30.277658691005	40
61	30754	30.339359043235	40
61	46180	40.669583771452	40
61	46419	40.905208269203	40
61	61125	50.798143761772	40
61	61288	50.903042185189	40
61	76343	60.248890467295	40
61	77111	60.834912772592	40
61	89914	70.194958063149	40
61	89937	70.209802476059	40
62	2691	10.545917597832	60
62	16481	20.656838347437	60
62	30274	30.054677748121	60
62	46207	40.747381777968	60
62	60022	50.162691526581	60
62	76048	60.029564742465	60
62	90427	70.648814905435	60
63	2691	10.545917597832	40
63	16481	20.656838347437	40
63	30274	30.054677748121	40
63	46207	40.747381777968	40
63	60022	50.162691526581	40
63	76048	60.029564742465	40
63	90427	70.648814905435	40
64	2664	10.473383627207	60
64	3024	10.817579740494	60
64	16366	20.585868758451	60
64	16381	20.591411583199	60
64	30653	30.277658691005	60
64	30754	30.339359043235	60
64	46180	40.669583771452	60
64	46419	40.905208269203	60
64	61125	50.798143761772	60
64	61288	50.903042185189	60
64	76343	60.248890467295	60
64	77111	60.834912772592	60
64	89914	70.194958063149	60
64	89937	70.209802476059	60
66	0	0	0
66	0	0	2
66	2691	10.545917597832	3
66	2697	10.546157597832	2
66	16481	20.656838347437	3
66	16487	20.657078347437	2
66	30274	30.054677748121	3
66	30280	30.054917748121	2
66	46207	40.747381777968	3
66	46213	40.747621777968	2
66	60022	50.162691526581	3
66	60028	50.162931526581	2
66	76048	60.029564742465	3
66	76054	60.029804742465	2
66	90427	70.648814905435	3
66	90433	70.649054905435	2
67	0	0	1
67	2658	10.473143627207	3
67	2663	10.473383627207	1
67	2691	10.545917597832	0
67	2697	10.546157597832	1
67	3015	10.817339740494	3
67	3023	10.817579740494	1
67	16357	20.585628758451	3
67	16365	20.585868758451	1
67	16375	20.591171583199	3
67	16380	20.591411583199	1
67	16481	20.656838347437	0
67	16487	20.657078347437	1
67	30274	30.054677748121	0
67	30280	30.054917748121	1
67	30647	30.277418691005	3
67	30652	30.277658691005	1
67	30745	30.339119043235	3
67	30753	30.339359043235	1
67	46174	40.669343771452	3
67	46179	40.669583771452	1
67	46207	40.747381777968	0
67	46213	40.747621777968	1
67	46410	40.904968269203	3
67	46418	40.905208269203	1
67	60022	50.162691526581	0
67	60028	50.162931526581	1
67	61119	50.797903761772	3
67	61124	50.798143761772	1
67	61279	50.902802185189	3
67	61287	50.903042185189	1
67	76048	60.029564742465	0
67	76054	60.029804742465	1
67	76337	60.248650467295	3
67	76342	60.248890467295	1
67	77102	60.834672772592	3
67	77110	60.834912772592	1
67	89908	70.194718063149	3
67	89913	70.194958063149	1
67	89928	70.209562476059	3
67	89936	70.209802476059	1
67	90427	70.648814905435	0
67	90433	70.649054905435	1
68	2691	10.545917597832	1
68	2692	10.545917597832	2
68	2697	10.546157597832	1
68	2697	10.546157597832	0
68	16481	20.656838347437	1
68	16482	20.656838347437	2
68	16487	20.657078347437	1
68	16487	20.657078347437	0
68	30274	30.054677748121	1
68	30275	30.054677748121	2
68	30280	30.054917748121	1
68	30280	30.054917748121	0
68	46207	40.747381777968	1
68	46208	40.747381777968	2
68	46213	40.747621777968	1
68	46213	40.747621777968	0
68	60022	50.162691526581	1
68	60023	50.162691526581	2
68	60028	50.162931526581	1
68	60028	50.162931526581	0
68	76048	60.029564742465	1
68	76049	60.029564742465	2
68	76054	60.029804742465	1
68	76054	60.029804742465	0
68	90427	70.648814905435	1
68	90428	70.648814905435	2
68	90433	70.649054905435	1
68	90433	70.649054905435	0
80	2655	10.473142977338	40
80	16372	20.59117093333	40
80	30644	30.277418041136	40
80	46171	40.669343121583	40
80	61116	50.797903111903	40
80	76334	60.248649817426	40
80	89905	70.19471741328	40
82	2655	10.473142977338	0
82	16372	20.59117093333	0
82	30644	30.277418041136	0
82	46171	40.669343121583	0
82	61116	50.797903111903	0
82	76334	60.248649817426	0
82	89905	70.19471741328	0
83	0	0	0
84	2703	10.546158247701	40
84	16493	20.657078997306	40
84	30286	30.05491839799	40
84	46219	40.747622427837	40
84	60034	50.16293217645	40
84	76060	60.029805392334	40
84	90439	70.649055555304	40
85	2656	10.473142977338	60
85	16373	20.59117093333	60
85	30645	30.277418041136	60
85	46172	40.669343121583	60
85	61117	50.797903111903	60
85	76335	60.248649817426	60
85	89906	70.19471741328	60
86	2656	10.473142977338	40
86	16373	20.59117093333	40
86	30645	30.277418041136	40
86	46172	40.669343121583	40
86	61117	50.797903111903	40
86	76335	60.248649817426	40
86	89906	70.19471741328	40
87	2703	10.546158247701	60
87	16493	20.657078997306	60
87	30286	30.05491839799	60
87	46219	40.747622427837	60
87	60034	50.16293217645	60
87	76060	60.029805392334	60
87	90439	70.649055555304	60
89	0	0	0
89	0	0	2
89	2656	10.473142977338	3
89	2662	10.473382977338	2
89	16373	20.59117093333	3
89	16379	20.59141093333	2
89	30645	30.277418041136	3
89	30651	30.277658041136	2
89	46172	40.669343121583	3
89	46178	40.669583121583	2
89	61117	50.797903111903	3
89	61123	50.798143111903	2
89	76335	60.248649817426	3
89	76341	60.248889817426	2
89	89906	70.19471741328	3
89	89912	70.19495741328	2
90	0	0	1
90	2656	10.473142977338	0
90	2662	10.473382977338	1
90	2694	10.545918247701	3
90	2702	10.546158247701	1
90	16373	20.59117093333	0
90	16379	20.59141093333	1
90	16484	20.656838997306	3
90	16492	20.657078997306	1
90	30277	30.05467839799	3
90	30285	30.05491839799	1
90	30645	30.277418041136	0
90	30651	30.277658041136	1
90	46172	40.669343121583	0
90	46178	40.669583121583	1
90	46210	40.747382427837	3
90	46218	40.747622427837	1
90	60025	50.16269217645	3
90	60033	50.16293217645	1
90	61117	50.797903111903	0
90	61123	50.798143111903	1
90	76051	60.029565392334	3
90	76059	60.029805392334	1
90	76335	60.248649817426	0
90	76341	60.248889817426	1
90	89906	70.19471741328	0
90	89912	70.19495741328	1
90	90430	70.648815555304	3
90	90438	70.649055555304	1
91	2656	10.473142977338	1
91	2657	10.473142977338	2
91	2662	10.473382977338	1
91	2662	10.473382977338	0
91	16373	20.59117093333	1
91	16374	20.59117093333	2
91	16379	20.59141093333	1
91	16379	20.59141093333	0
91	30645	30.277418041136	1
91	30646	30.277418041136	2
91	30651	30.277658041136	1
91	30651	30.277658041136	0
91	46172	40.669343121583	1
91	46173	40.669343121583	2
91	46178	40.669583121583	1
91	46178	40.669583121583	0
91	61117	50.797903111903	1
91	61118	50.797903111903	2
91	61123	50.798143111903	1
91	61123	50.798143111903	0
91	76335	60.248649817426	1
91	76336	60.248649817426	2
91	76341	60.248889817426	1
91	76341	60.248889817426	0
91	89906	70.19471741328	1
91	89907	70.19471741328	2
91	89912	70.19495741328	1
91	89912	70.19495741328	0
