version 2
run Wireless01-0-20170520-16:05:41-2676
attr configname Wireless01
attr datetime 20170520-16:05:41
attr experiment Wireless01
attr inifile omnetpp.ini
attr iterationvars ""
attr iterationvars2 $repetition=0
attr measurement ""
attr network WirelessA
attr processid 2676
attr repetition 0
attr replication #0
attr resultdir results
attr runnumber 0
attr seedset 0
param *.host*.**.bitrate 1Mbps
param *.host*.networkLayer.arpType "\"GlobalARP\""
param *.host*.wlan[0].mac.fullDuplex false
param *.host*.wlan[0].mac.useAck false
param *.host*.wlan[0].radio.receiver.ignoreInterference true
param *.host*.wlan[0].typename "\"IdealWirelessNic\""
param *.hostA.numUdpApps 1
param *.hostA.udpApp[0].destAddresses "\"hostB\""
param *.hostA.udpApp[0].destPort 5000
param *.hostA.udpApp[0].messageLength 1000B
param *.hostA.udpApp[0].packetName "\"UDPData\""
param *.hostA.udpApp[0].sendInterval exponential(12ms)
param *.hostA.udpApp[0].typename "\"UDPBasicApp\""
param *.hostB.numUdpApps 1
param *.hostB.udpApp[0].localPort 5000
param *.hostB.udpApp[0].typename "\"UDPSink\""

vector 15  WirelessA.hostA.wlan[0].queue  queueLength:vector  ETV
attr interpolationmode  sample-hold
attr title  "queue length, vector"
vector 38  WirelessA.hostB.wlan[0].queue  queueLength:vector  ETV
attr interpolationmode  sample-hold
attr title  "queue length, vector"
vector 21  WirelessA.hostA.wlan[0].radio  radioMode:vector  ETV
attr interpolationmode  sample-hold
attr source  radioModeChanged
attr title  "Radio mode, vector"
vector 44  WirelessA.hostB.wlan[0].radio  radioMode:vector  ETV
attr interpolationmode  sample-hold
attr source  radioModeChanged
attr title  "Radio mode, vector"
vector 22  WirelessA.hostA.wlan[0].radio  receptionState:vector  ETV
attr interpolationmode  sample-hold
attr source  receptionStateChanged
attr title  "Radio reception state, vector"
vector 45  WirelessA.hostB.wlan[0].radio  receptionState:vector  ETV
attr interpolationmode  sample-hold
attr source  receptionStateChanged
attr title  "Radio reception state, vector"
vector 1  WirelessA.hostA.udpApp[0]  sentPk:vector(packetBytes)  ETV
attr interpolationmode  none
attr source  sentPk
attr title  "packets sent, vector(packetBytes)"
vector 4  WirelessA.hostA.udp  sentPk:vector(packetBytes)  ETV
attr interpolationmode  none
attr source  sentPk
attr title  "packets sent, vector(packetBytes)"
vector 12  WirelessA.hostA.wlan[0].queue  rcvdPk:vector(packetBytes)  ETV
attr interpolationmode  none
attr title  "received packets, vector(packetBytes)"
vector 14  WirelessA.hostA.wlan[0].queue  queueingTime:vector  ETV
attr interpolationmode  none
attr title  "queueing time, vector"
vector 18  WirelessA.hostA.wlan[0].mac  rcvdPkFromHL:vector(packetBytes)  ETV
attr interpolationmode  none
attr source  packetReceivedFromUpper
attr title  "packets received from higher layer, vector(packetBytes)"
vector 23  WirelessA.hostA.wlan[0].radio  transmissionState:vector  ETV
attr interpolationmode  sample-hold
attr source  transmissionStateChanged
attr title  "Radio transmission state, vector"
vector 17  WirelessA.hostA.wlan[0].mac  sentDownPk:vector(packetBytes)  ETV
attr interpolationmode  none
attr source  packetSentToLower
attr title  "packets sent to lower layer, vector(packetBytes)"
1	10	0.022315250545	1000
1	18	0.028927832385	1000
1	30	0.041385743993	1000
1	37	0.048291974356	1000
1	51	0.07497426742	1000
1	61	0.114753214779	1000
1	68	0.120556440038	1000
1	80	0.139383193449	1000
1	90	0.148415282809	1000
1	100	0.158488477044	1000
1	111	0.189667526074	1000
1	118	0.19055175034	1000
1	122	0.191645682653	1000
1	126	0.191890789714	1000
1	141	0.213340641675	1000
1	159	0.231410052779	1000
1	171	0.255893823874	1000
1	181	0.302036486304	1000
1	191	0.321299360989	1000
1	198	0.328726514505	1000
1	210	0.346924946193	1000
1	218	0.348435439106	1000
1	227	0.360692621598	1000
1	231	0.362549377764	1000
1	251	0.3972824235	1000
1	260	0.406136351001	1000
1	267	0.412563139644	1000
1	277	0.41625050387	1000
1	290	0.434109561779	1000
1	298	0.441418550857	1000
1	309	0.451502567324	1000
1	316	0.451730190154	1000
1	327	0.463266761423	1000
1	337	0.474630721549	1000
1	349	0.486145297277	1000
1	361	0.520680277532	1000
1	370	0.534421944988	1000
1	378	0.539768166929	1000
1	387	0.54666255581	1000
1	400	0.561015849403	1000
1	407	0.561761232889	1000
1	417	0.5749481825	1000
1	430	0.588275351848	1000
1	437	0.591109832321	1000
1	441	0.592766176582	1000
1	451	0.597313720153	1000
1	455	0.602738944876	1000
1	465	0.612872078398	1000
1	475	0.619799970128	1000
1	501	0.673253932282	1000
1	508	0.67454555358	1000
1	512	0.677357171805	1000
1	516	0.67946813435	1000
1	531	0.692173046931	1000
1	535	0.69567801333	1000
1	545	0.703213312302	1000
1	554	0.706576636404	1000
1	559	0.708654165878	1000
1	563	0.710057630796	1000
1	578	0.722874497162	1000
1	583	0.724659044393	1000
1	587	0.727285611551	1000
1	597	0.732805779044	1000
1	613	0.753449758937	1000
1	617	0.754675497515	1000
1	639	0.776513324546	1000
1	643	0.77772574185	1000
1	679	0.822714119365	1000
1	687	0.830302158522	1000
1	701	0.875445285936	1000
1	710	0.886587027899	1000
1	720	0.902717971165	1000
1	727	0.903197686754	1000
1	732	0.907186609646	1000
1	736	0.90872329083	1000
1	745	0.912937403903	1000
1	749	0.91445406754	1000
1	753	0.919046478926	1000
1	763	0.925465091435	1000
1	767	0.926260660253	1000
1	783	0.940410934578	1000
1	793	0.950444104962	1000
1	803	0.954145083043	1000
1	813	0.963034190448	1000
1	817	0.964217994149	1000
1	827	0.974512741842	1000
1	855	1.006303812986	1000
1	864	1.010906535555	1000
1	875	1.024116686476	1000
1	879	1.025812655039	1000
1	895	1.04093186076	1000
1	905	1.045031710764	1000
1	909	1.047459916027	1000
1	919	1.058057464531	1000
1	923	1.058301214037	1000
1	945	1.079490106906	1000
1	949	1.079546585392	1000
1	964	1.093138195096	1000
1	969	1.096914855026	1000
1	985	1.112859949511	1000
1	1011	1.152161667644	1000
1	1018	1.155593919314	1000
1	1027	1.165894634928	1000
1	1037	1.176653725377	1000
1	1050	1.186844375116	1000
1	1057	1.189873415031	1000
1	1071	1.226500794914	1000
1	1078	1.233612283243	1000
1	1091	1.256093801801	1000
1	1100	1.270520664608	1000
1	1108	1.274756906207	1000
1	1120	1.294927972662	1000
1	1128	1.300988197635	1000
1	1141	1.326542190388	1000
1	1150	1.336988620304	1000
1	1161	1.362606585704	1000
1	1170	1.376759180908	1000
1	1180	1.392262092134	1000
1	1190	1.400611685665	1000
1	1201	1.438117305957	1000
1	1210	1.450510870085	1000
1	1218	1.457127621967	1000
1	1229	1.468316456532	1000
1	1236	1.468549013908	1000
1	1241	1.472856140498	1000
1	1256	1.485807982882	1000
1	1261	1.489919178378	1000
1	1276	1.501467679047	1000
1	1281	1.508187211888	1000
1	1290	1.509934099629	1000
1	1295	1.514184789216	1000
1	1305	1.524311450887	1000
1	1320	1.535036199827	1000
1	1331	1.545285156655	1000
1	1341	1.55799326928	1000
1	1357	1.570663464584	1000
1	1367	1.577438790597	1000
1	1381	1.604662398509	1000
1	1388	1.610160473116	1000
1	1397	1.617030011733	1000
1	1411	1.64372898762	1000
1	1421	1.663419758555	1000
1	1430	1.678023992499	1000
1	1437	1.679291344223	1000
1	1451	1.709522729784	1000
1	1460	1.724554020083	1000
1	1471	1.805738706322	1000
1	1478	1.807681147363	1000
1	1490	1.831992053168	1000
1	1498	1.83411996007	1000
1	1507	1.845591557157	1000
1	1511	1.847177761672	1000
1	1530	1.869784908311	1000
1	1541	1.889545537527	1000
1	1550	1.899648109068	1000
1	1557	1.905922549429	1000
1	1561	1.906782654041	1000
1	1577	1.921127916836	1000
1	1587	1.928379505698	1000
1	1600	1.943743516144	1000
1	1611	1.967896788978	1000
1	1621	2.012416316081	1000
1	1631	2.035655242931	1000
1	1638	2.035796641714	1000
1	1642	2.04115167556	1000
1	1657	2.056863255928	1000
1	1661	2.059122795631	1000
1	1671	2.067956368831	1000
1	1680	2.068626809466	1000
1	1685	2.071304479963	1000
1	1689	2.071528825608	1000
1	1705	2.090469778273	1000
1	1714	2.093511846735	1000
1	1719	2.098595731951	1000
1	1747	2.130182358302	1000
1	1760	2.144807919942	1000
1	1767	2.145196201598	1000
1	1771	2.147355689697	1000
1	1781	2.159013475594	1000
1	1791	2.169344559234	1000
1	1801	2.172604576078	1000
1	1821	2.205260755149	1000
1	1830	2.21668271164	1000
1	1840	2.225887667495	1000
1	1850	2.236584210418	1000
1	1860	2.252301634874	1000
1	1868	2.256788272825	1000
1	1877	2.262882654297	1000
1	1881	2.265708949178	1000
1	1885	2.26818133376	1000
1	1910	2.302850240863	1000
1	1920	2.318994410062	1000
1	1928	2.327085344898	1000
1	1937	2.330181498065	1000
1	1941	2.333703589888	1000
1	1945	2.334420961443	1000
1	1955	2.341259732227	1000
1	1965	2.34574376976	1000
1	1975	2.360046067004	1000
1	1985	2.365739062488	1000
1	1989	2.368114675312	1000
1	1998	2.368414535552	1000
1	2002	2.369249947605	1000
1	2013	2.382900409671	1000
1	2023	2.390155384291	1000
1	2033	2.399384821904	1000
1	2060	2.426622902093	1000
1	2081	2.482298732409	1000
1	2088	2.485232624674	1000
1	2097	2.498287477877	1000
1	2107	2.501954736699	1000
1	2111	2.502205143322	1000
1	2127	2.519249744789	1000
1	2136	2.523877997118	1000
1	2141	2.529681657768	1000
1	2156	2.54033168091	1000
1	2170	2.561669400952	1000
1	2180	2.573567452467	1000
1	2191	2.598297307358	1000
1	2198	2.602132203216	1000
1	2210	2.621328836518	1000
1	2217	2.623793009743	1000
1	2231	2.660431225778	1000
1	2240	2.674388585179	1000
1	2247	2.677301207103	1000
1	2261	2.712634970432	1000
1	2270	2.728385066348	1000
1	2278	2.73190048385	1000
1	2282	2.734779566083	1000
1	2291	2.743542298066	1000
1	2295	2.743854271008	1000
1	2305	2.746644571229	1000
1	2314	2.753278631677	1000
1	2319	2.758902749389	1000
1	2329	2.766376701106	1000
1	2338	2.770279293322	1000
1	2349	2.780884721194	1000
1	2371	2.804813191609	1000
1	2375	2.806313582688	1000
1	2385	2.815055868801	1000
1	2389	2.816755573219	1000
1	2405	2.831897325301	1000
1	2415	2.8379486845	1000
1	2425	2.847949223388	1000
1	2429	2.850378728552	1000
1	2438	2.852256437797	1000
1	2448	2.860290924887	1000
1	2453	2.865564389573	1000
1	2481	2.899412020954	1000
1	2497	2.916806678271	1000
1	2510	2.933378235419	1000
1	2521	2.961464138947	1000
1	2528	2.962509441946	1000
1	2537	2.972150143098	1000
1	2547	2.982688724043	1000
1	2561	3.021910680853	1000
1	2568	3.026056915858	1000
1	2572	3.029363251102	1000
1	2581	3.030631497191	1000
1	2585	3.030830290324	1000
1	2607	3.06266099251	1000
1	2620	3.075961909561	1000
1	2631	3.094415854135	1000
1	2638	3.098386772709	1000
1	2647	3.108981339248	1000
1	2651	3.109774443376	1000
1	2661	3.117752136371	1000
1	2681	3.163280421768	1000
1	2691	3.188379100639	1000
1	2698	3.19333185904	1000
1	2711	3.232438910766	1000
1	2718	3.23560183612	1000
1	2731	3.271388244226	1000
1	2741	3.305427926547	1000
1	2751	3.324693431704	1000
1	2760	3.336638995424	1000
1	2771	3.361524132981	1000
1	2778	3.365685172626	1000
1	2791	3.388366393003	1000
1	2800	3.399910536122	1000
1	2807	3.40007043906	1000
1	2811	3.405188868804	1000
1	2816	3.407112877938	1000
1	2841	3.455208273796	1000
1	2848	3.463017841904	1000
1	2857	3.471273163646	1000
1	2870	3.483515408701	1000
1	2877	3.489032904514	1000
1	2882	3.490799604962	1000
1	2900	3.511519205519	1000
1	2907	3.514045604977	1000
1	2917	3.522638148793	1000
1	2921	3.525686285333	1000
1	2925	3.526921905698	1000
1	2947	3.550704589791	1000
1	2961	3.594011881851	1000
1	2971	3.632891437454	1000
1	2981	3.661336088421	1000
1	2990	3.679185245473	1000
1	2998	3.684047440061	1000
1	3002	3.685062393962	1000
1	3011	3.691338005806	1000
1	3015	3.694509251376	1000
1	3024	3.696214757513	1000
1	3028	3.696873645984	1000
1	3044	3.71239142029	1000
1	3048	3.712529339293	1000
1	3064	3.730195789189	1000
1	3069	3.732102987345	1000
1	3073	3.73309733462	1000
1	3077	3.734223829187	1000
1	3093	3.74760247825	1000
1	3097	3.75098076652	1000
1	3107	3.757528659097	1000
1	3117	3.767308879068	1000
1	3139	3.790949569855	1000
1	3155	3.806530917482	1000
1	3159	3.810312837827	1000
1	3168	3.81200445244	1000
1	3173	3.81268805083	1000
1	3177	3.816995586651	1000
1	3186	3.820643245362	1000
1	3196	3.827952018826	1000
1	3207	3.841748915479	1000
1	3223	3.856022870495	1000
1	3227	3.860023710556	1000
1	3237	3.865758726406	1000
1	3241	3.868156992861	1000
1	3263	3.886801938885	1000
1	3267	3.887504273672	1000
1	3282	3.901832434119	1000
1	3299	3.919931016899	1000
1	3315	3.937959970424	1000
1	3319	3.941563871387	1000
1	3329	3.947181148826	1000
1	3339	3.957810276578	1000
1	3349	3.961633282753	1000
1	3358	3.967193963083	1000
1	3363	3.969827581014	1000
1	3373	3.977218612419	1000
1	3377	3.977766269013	1000
1	3393	3.997067283202	1000
1	3397	3.998028229473	1000
1	3407	4.006806773543	1000
1	3417	4.011204189045	1000
1	3427	4.021544198947	1000
4	12	0.022315250545	1008
4	19	0.028927832385	1008
4	31	0.041385743993	1008
4	38	0.048291974356	1008
4	52	0.07497426742	1008
4	62	0.114753214779	1008
4	69	0.120556440038	1008
4	81	0.139383193449	1008
4	91	0.148415282809	1008
4	101	0.158488477044	1008
4	112	0.189667526074	1008
4	119	0.19055175034	1008
4	123	0.191645682653	1008
4	127	0.191890789714	1008
4	142	0.213340641675	1008
4	160	0.231410052779	1008
4	172	0.255893823874	1008
4	182	0.302036486304	1008
4	192	0.321299360989	1008
4	199	0.328726514505	1008
4	211	0.346924946193	1008
4	219	0.348435439106	1008
4	228	0.360692621598	1008
4	232	0.362549377764	1008
4	252	0.3972824235	1008
4	261	0.406136351001	1008
4	268	0.412563139644	1008
4	278	0.41625050387	1008
4	291	0.434109561779	1008
4	299	0.441418550857	1008
4	310	0.451502567324	1008
4	317	0.451730190154	1008
4	328	0.463266761423	1008
4	338	0.474630721549	1008
4	350	0.486145297277	1008
4	362	0.520680277532	1008
4	371	0.534421944988	1008
4	379	0.539768166929	1008
4	388	0.54666255581	1008
4	401	0.561015849403	1008
4	408	0.561761232889	1008
4	418	0.5749481825	1008
4	431	0.588275351848	1008
4	438	0.591109832321	1008
4	442	0.592766176582	1008
4	452	0.597313720153	1008
4	456	0.602738944876	1008
4	466	0.612872078398	1008
4	476	0.619799970128	1008
4	502	0.673253932282	1008
4	509	0.67454555358	1008
4	513	0.677357171805	1008
4	517	0.67946813435	1008
4	532	0.692173046931	1008
4	536	0.69567801333	1008
4	546	0.703213312302	1008
4	555	0.706576636404	1008
4	560	0.708654165878	1008
4	564	0.710057630796	1008
4	579	0.722874497162	1008
4	584	0.724659044393	1008
4	588	0.727285611551	1008
4	598	0.732805779044	1008
4	614	0.753449758937	1008
4	618	0.754675497515	1008
4	640	0.776513324546	1008
4	644	0.77772574185	1008
4	680	0.822714119365	1008
4	688	0.830302158522	1008
4	702	0.875445285936	1008
4	711	0.886587027899	1008
4	721	0.902717971165	1008
4	728	0.903197686754	1008
4	733	0.907186609646	1008
4	737	0.90872329083	1008
4	746	0.912937403903	1008
4	750	0.91445406754	1008
4	754	0.919046478926	1008
4	764	0.925465091435	1008
4	768	0.926260660253	1008
4	784	0.940410934578	1008
4	794	0.950444104962	1008
4	804	0.954145083043	1008
4	814	0.963034190448	1008
4	818	0.964217994149	1008
4	828	0.974512741842	1008
4	856	1.006303812986	1008
4	865	1.010906535555	1008
4	876	1.024116686476	1008
4	880	1.025812655039	1008
4	896	1.04093186076	1008
4	906	1.045031710764	1008
4	910	1.047459916027	1008
4	920	1.058057464531	1008
4	924	1.058301214037	1008
4	946	1.079490106906	1008
4	950	1.079546585392	1008
4	965	1.093138195096	1008
4	970	1.096914855026	1008
4	986	1.112859949511	1008
4	1012	1.152161667644	1008
4	1019	1.155593919314	1008
4	1028	1.165894634928	1008
4	1038	1.176653725377	1008
4	1051	1.186844375116	1008
4	1058	1.189873415031	1008
4	1072	1.226500794914	1008
4	1079	1.233612283243	1008
4	1092	1.256093801801	1008
4	1101	1.270520664608	1008
4	1109	1.274756906207	1008
4	1121	1.294927972662	1008
4	1129	1.300988197635	1008
4	1142	1.326542190388	1008
4	1151	1.336988620304	1008
4	1162	1.362606585704	1008
4	1171	1.376759180908	1008
4	1181	1.392262092134	1008
4	1191	1.400611685665	1008
4	1202	1.438117305957	1008
4	1211	1.450510870085	1008
4	1219	1.457127621967	1008
4	1230	1.468316456532	1008
4	1237	1.468549013908	1008
4	1242	1.472856140498	1008
4	1257	1.485807982882	1008
4	1262	1.489919178378	1008
4	1277	1.501467679047	1008
4	1282	1.508187211888	1008
4	1291	1.509934099629	1008
4	1296	1.514184789216	1008
4	1306	1.524311450887	1008
4	1321	1.535036199827	1008
4	1332	1.545285156655	1008
4	1342	1.55799326928	1008
4	1358	1.570663464584	1008
4	1368	1.577438790597	1008
4	1382	1.604662398509	1008
4	1389	1.610160473116	1008
4	1398	1.617030011733	1008
4	1412	1.64372898762	1008
4	1422	1.663419758555	1008
4	1431	1.678023992499	1008
4	1438	1.679291344223	1008
4	1452	1.709522729784	1008
4	1461	1.724554020083	1008
4	1472	1.805738706322	1008
4	1479	1.807681147363	1008
4	1491	1.831992053168	1008
4	1499	1.83411996007	1008
4	1508	1.845591557157	1008
4	1512	1.847177761672	1008
4	1531	1.869784908311	1008
4	1542	1.889545537527	1008
4	1551	1.899648109068	1008
4	1558	1.905922549429	1008
4	1562	1.906782654041	1008
4	1578	1.921127916836	1008
4	1588	1.928379505698	1008
4	1601	1.943743516144	1008
4	1612	1.967896788978	1008
4	1622	2.012416316081	1008
4	1632	2.035655242931	1008
4	1639	2.035796641714	1008
4	1643	2.04115167556	1008
4	1658	2.056863255928	1008
4	1662	2.059122795631	1008
4	1672	2.067956368831	1008
4	1681	2.068626809466	1008
4	1686	2.071304479963	1008
4	1690	2.071528825608	1008
4	1706	2.090469778273	1008
4	1715	2.093511846735	1008
4	1720	2.098595731951	1008
4	1748	2.130182358302	1008
4	1761	2.144807919942	1008
4	1768	2.145196201598	1008
4	1772	2.147355689697	1008
4	1782	2.159013475594	1008
4	1792	2.169344559234	1008
4	1802	2.172604576078	1008
4	1822	2.205260755149	1008
4	1831	2.21668271164	1008
4	1841	2.225887667495	1008
4	1851	2.236584210418	1008
4	1861	2.252301634874	1008
4	1869	2.256788272825	1008
4	1878	2.262882654297	1008
4	1882	2.265708949178	1008
4	1886	2.26818133376	1008
4	1911	2.302850240863	1008
4	1921	2.318994410062	1008
4	1929	2.327085344898	1008
4	1938	2.330181498065	1008
4	1942	2.333703589888	1008
4	1946	2.334420961443	1008
4	1956	2.341259732227	1008
4	1966	2.34574376976	1008
4	1976	2.360046067004	1008
4	1986	2.365739062488	1008
4	1990	2.368114675312	1008
4	1999	2.368414535552	1008
4	2003	2.369249947605	1008
4	2014	2.382900409671	1008
4	2024	2.390155384291	1008
4	2034	2.399384821904	1008
4	2061	2.426622902093	1008
4	2082	2.482298732409	1008
4	2089	2.485232624674	1008
4	2098	2.498287477877	1008
4	2108	2.501954736699	1008
4	2112	2.502205143322	1008
4	2128	2.519249744789	1008
4	2137	2.523877997118	1008
4	2142	2.529681657768	1008
4	2157	2.54033168091	1008
4	2171	2.561669400952	1008
4	2181	2.573567452467	1008
4	2192	2.598297307358	1008
4	2199	2.602132203216	1008
4	2211	2.621328836518	1008
4	2218	2.623793009743	1008
4	2232	2.660431225778	1008
4	2241	2.674388585179	1008
4	2248	2.677301207103	1008
4	2262	2.712634970432	1008
4	2271	2.728385066348	1008
4	2279	2.73190048385	1008
4	2283	2.734779566083	1008
4	2292	2.743542298066	1008
4	2296	2.743854271008	1008
4	2306	2.746644571229	1008
4	2315	2.753278631677	1008
4	2320	2.758902749389	1008
4	2330	2.766376701106	1008
4	2339	2.770279293322	1008
4	2350	2.780884721194	1008
4	2372	2.804813191609	1008
4	2376	2.806313582688	1008
4	2386	2.815055868801	1008
4	2390	2.816755573219	1008
4	2406	2.831897325301	1008
4	2416	2.8379486845	1008
4	2426	2.847949223388	1008
4	2430	2.850378728552	1008
4	2439	2.852256437797	1008
4	2449	2.860290924887	1008
4	2454	2.865564389573	1008
4	2482	2.899412020954	1008
4	2498	2.916806678271	1008
4	2511	2.933378235419	1008
4	2522	2.961464138947	1008
4	2529	2.962509441946	1008
4	2538	2.972150143098	1008
4	2548	2.982688724043	1008
4	2562	3.021910680853	1008
4	2569	3.026056915858	1008
4	2573	3.029363251102	1008
4	2582	3.030631497191	1008
4	2586	3.030830290324	1008
4	2608	3.06266099251	1008
4	2621	3.075961909561	1008
4	2632	3.094415854135	1008
4	2639	3.098386772709	1008
4	2648	3.108981339248	1008
4	2652	3.109774443376	1008
4	2662	3.117752136371	1008
4	2682	3.163280421768	1008
4	2692	3.188379100639	1008
4	2699	3.19333185904	1008
4	2712	3.232438910766	1008
4	2719	3.23560183612	1008
4	2732	3.271388244226	1008
4	2742	3.305427926547	1008
4	2752	3.324693431704	1008
4	2761	3.336638995424	1008
4	2772	3.361524132981	1008
4	2779	3.365685172626	1008
4	2792	3.388366393003	1008
4	2801	3.399910536122	1008
4	2808	3.40007043906	1008
4	2812	3.405188868804	1008
4	2817	3.407112877938	1008
4	2842	3.455208273796	1008
4	2849	3.463017841904	1008
4	2858	3.471273163646	1008
4	2871	3.483515408701	1008
4	2878	3.489032904514	1008
4	2883	3.490799604962	1008
4	2901	3.511519205519	1008
4	2908	3.514045604977	1008
4	2918	3.522638148793	1008
4	2922	3.525686285333	1008
4	2926	3.526921905698	1008
4	2948	3.550704589791	1008
4	2962	3.594011881851	1008
4	2972	3.632891437454	1008
4	2982	3.661336088421	1008
4	2991	3.679185245473	1008
4	2999	3.684047440061	1008
4	3003	3.685062393962	1008
4	3012	3.691338005806	1008
4	3016	3.694509251376	1008
4	3025	3.696214757513	1008
4	3029	3.696873645984	1008
4	3045	3.71239142029	1008
4	3049	3.712529339293	1008
4	3065	3.730195789189	1008
4	3070	3.732102987345	1008
4	3074	3.73309733462	1008
4	3078	3.734223829187	1008
4	3094	3.74760247825	1008
4	3098	3.75098076652	1008
4	3108	3.757528659097	1008
4	3118	3.767308879068	1008
4	3140	3.790949569855	1008
4	3156	3.806530917482	1008
4	3160	3.810312837827	1008
4	3169	3.81200445244	1008
4	3174	3.81268805083	1008
4	3178	3.816995586651	1008
4	3187	3.820643245362	1008
4	3197	3.827952018826	1008
4	3208	3.841748915479	1008
4	3224	3.856022870495	1008
4	3228	3.860023710556	1008
4	3238	3.865758726406	1008
4	3242	3.868156992861	1008
4	3264	3.886801938885	1008
4	3268	3.887504273672	1008
4	3283	3.901832434119	1008
4	3300	3.919931016899	1008
4	3316	3.937959970424	1008
4	3320	3.941563871387	1008
4	3330	3.947181148826	1008
4	3340	3.957810276578	1008
4	3350	3.961633282753	1008
4	3359	3.967193963083	1008
4	3364	3.969827581014	1008
4	3374	3.977218612419	1008
4	3378	3.977766269013	1008
4	3394	3.997067283202	1008
4	3398	3.998028229473	1008
4	3408	4.006806773543	1008
4	3418	4.011204189045	1008
4	3428	4.021544198947	1008
12	14	0.022315250545	1028
12	21	0.028927832385	1028
12	33	0.041385743993	1028
12	40	0.048291974356	1028
12	54	0.07497426742	1028
12	64	0.114753214779	1028
12	71	0.120556440038	1028
12	83	0.139383193449	1028
12	93	0.148415282809	1028
12	103	0.158488477044	1028
12	114	0.189667526074	1028
12	121	0.19055175034	1028
12	125	0.191645682653	1028
12	129	0.191890789714	1028
12	144	0.213340641675	1028
12	162	0.231410052779	1028
12	174	0.255893823874	1028
12	184	0.302036486304	1028
12	194	0.321299360989	1028
12	201	0.328726514505	1028
12	213	0.346924946193	1028
12	221	0.348435439106	1028
12	230	0.360692621598	1028
12	234	0.362549377764	1028
12	254	0.3972824235	1028
12	263	0.406136351001	1028
12	270	0.412563139644	1028
12	280	0.41625050387	1028
12	293	0.434109561779	1028
12	301	0.441418550857	1028
12	312	0.451502567324	1028
12	319	0.451730190154	1028
12	330	0.463266761423	1028
12	340	0.474630721549	1028
12	352	0.486145297277	1028
12	364	0.520680277532	1028
12	373	0.534421944988	1028
12	381	0.539768166929	1028
12	390	0.54666255581	1028
12	403	0.561015849403	1028
12	410	0.561761232889	1028
12	420	0.5749481825	1028
12	433	0.588275351848	1028
12	440	0.591109832321	1028
12	444	0.592766176582	1028
12	454	0.597313720153	1028
12	458	0.602738944876	1028
12	468	0.612872078398	1028
12	478	0.619799970128	1028
12	504	0.673253932282	1028
12	511	0.67454555358	1028
12	515	0.677357171805	1028
12	519	0.67946813435	1028
12	534	0.692173046931	1028
12	538	0.69567801333	1028
12	548	0.703213312302	1028
12	557	0.706576636404	1028
12	562	0.708654165878	1028
12	566	0.710057630796	1028
12	581	0.722874497162	1028
12	586	0.724659044393	1028
12	590	0.727285611551	1028
12	600	0.732805779044	1028
12	616	0.753449758937	1028
12	620	0.754675497515	1028
12	642	0.776513324546	1028
12	646	0.77772574185	1028
12	682	0.822714119365	1028
12	690	0.830302158522	1028
12	704	0.875445285936	1028
12	713	0.886587027899	1028
12	723	0.902717971165	1028
12	730	0.903197686754	1028
12	735	0.907186609646	1028
12	739	0.90872329083	1028
12	748	0.912937403903	1028
12	752	0.91445406754	1028
12	756	0.919046478926	1028
12	766	0.925465091435	1028
12	770	0.926260660253	1028
12	786	0.940410934578	1028
12	796	0.950444104962	1028
12	806	0.954145083043	1028
12	816	0.963034190448	1028
12	820	0.964217994149	1028
12	830	0.974512741842	1028
12	858	1.006303812986	1028
12	867	1.010906535555	1028
12	878	1.024116686476	1028
12	882	1.025812655039	1028
12	898	1.04093186076	1028
12	908	1.045031710764	1028
12	912	1.047459916027	1028
12	922	1.058057464531	1028
12	926	1.058301214037	1028
12	948	1.079490106906	1028
12	952	1.079546585392	1028
12	967	1.093138195096	1028
12	972	1.096914855026	1028
12	988	1.112859949511	1028
12	1014	1.152161667644	1028
12	1021	1.155593919314	1028
12	1030	1.165894634928	1028
12	1040	1.176653725377	1028
12	1053	1.186844375116	1028
12	1060	1.189873415031	1028
12	1074	1.226500794914	1028
12	1081	1.233612283243	1028
12	1094	1.256093801801	1028
12	1103	1.270520664608	1028
12	1111	1.274756906207	1028
12	1123	1.294927972662	1028
12	1131	1.300988197635	1028
12	1144	1.326542190388	1028
12	1153	1.336988620304	1028
12	1164	1.362606585704	1028
12	1173	1.376759180908	1028
12	1183	1.392262092134	1028
12	1193	1.400611685665	1028
12	1204	1.438117305957	1028
12	1213	1.450510870085	1028
12	1221	1.457127621967	1028
12	1232	1.468316456532	1028
12	1239	1.468549013908	1028
12	1244	1.472856140498	1028
12	1259	1.485807982882	1028
12	1264	1.489919178378	1028
12	1279	1.501467679047	1028
12	1284	1.508187211888	1028
12	1293	1.509934099629	1028
12	1298	1.514184789216	1028
12	1308	1.524311450887	1028
12	1323	1.535036199827	1028
12	1334	1.545285156655	1028
12	1344	1.55799326928	1028
12	1360	1.570663464584	1028
12	1370	1.577438790597	1028
12	1384	1.604662398509	1028
12	1391	1.610160473116	1028
12	1400	1.617030011733	1028
12	1414	1.64372898762	1028
12	1424	1.663419758555	1028
12	1433	1.678023992499	1028
12	1440	1.679291344223	1028
12	1454	1.709522729784	1028
12	1463	1.724554020083	1028
12	1474	1.805738706322	1028
12	1481	1.807681147363	1028
12	1493	1.831992053168	1028
12	1501	1.83411996007	1028
12	1510	1.845591557157	1028
12	1514	1.847177761672	1028
12	1533	1.869784908311	1028
12	1544	1.889545537527	1028
12	1553	1.899648109068	1028
12	1560	1.905922549429	1028
12	1564	1.906782654041	1028
12	1580	1.921127916836	1028
12	1590	1.928379505698	1028
12	1603	1.943743516144	1028
12	1614	1.967896788978	1028
12	1624	2.012416316081	1028
12	1634	2.035655242931	1028
12	1641	2.035796641714	1028
12	1645	2.04115167556	1028
12	1660	2.056863255928	1028
12	1664	2.059122795631	1028
12	1674	2.067956368831	1028
12	1683	2.068626809466	1028
12	1688	2.071304479963	1028
12	1692	2.071528825608	1028
12	1708	2.090469778273	1028
12	1717	2.093511846735	1028
12	1722	2.098595731951	1028
12	1750	2.130182358302	1028
12	1763	2.144807919942	1028
12	1770	2.145196201598	1028
12	1774	2.147355689697	1028
12	1784	2.159013475594	1028
12	1794	2.169344559234	1028
12	1804	2.172604576078	1028
12	1824	2.205260755149	1028
12	1833	2.21668271164	1028
12	1843	2.225887667495	1028
12	1853	2.236584210418	1028
12	1863	2.252301634874	1028
12	1871	2.256788272825	1028
12	1880	2.262882654297	1028
12	1884	2.265708949178	1028
12	1888	2.26818133376	1028
12	1913	2.302850240863	1028
12	1923	2.318994410062	1028
12	1931	2.327085344898	1028
12	1940	2.330181498065	1028
12	1944	2.333703589888	1028
12	1948	2.334420961443	1028
12	1958	2.341259732227	1028
12	1968	2.34574376976	1028
12	1978	2.360046067004	1028
12	1988	2.365739062488	1028
12	1992	2.368114675312	1028
12	2001	2.368414535552	1028
12	2005	2.369249947605	1028
12	2016	2.382900409671	1028
12	2026	2.390155384291	1028
12	2036	2.399384821904	1028
12	2063	2.426622902093	1028
12	2084	2.482298732409	1028
12	2091	2.485232624674	1028
12	2100	2.498287477877	1028
12	2110	2.501954736699	1028
12	2114	2.502205143322	1028
12	2130	2.519249744789	1028
12	2139	2.523877997118	1028
12	2144	2.529681657768	1028
12	2159	2.54033168091	1028
12	2173	2.561669400952	1028
12	2183	2.573567452467	1028
12	2194	2.598297307358	1028
12	2201	2.602132203216	1028
12	2213	2.621328836518	1028
12	2220	2.623793009743	1028
12	2234	2.660431225778	1028
12	2243	2.674388585179	1028
12	2250	2.677301207103	1028
12	2264	2.712634970432	1028
12	2273	2.728385066348	1028
12	2281	2.73190048385	1028
12	2285	2.734779566083	1028
12	2294	2.743542298066	1028
12	2298	2.743854271008	1028
12	2308	2.746644571229	1028
12	2317	2.753278631677	1028
12	2322	2.758902749389	1028
12	2332	2.766376701106	1028
12	2341	2.770279293322	1028
12	2352	2.780884721194	1028
12	2374	2.804813191609	1028
12	2378	2.806313582688	1028
12	2388	2.815055868801	1028
12	2392	2.816755573219	1028
12	2408	2.831897325301	1028
12	2418	2.8379486845	1028
12	2428	2.847949223388	1028
12	2432	2.850378728552	1028
12	2441	2.852256437797	1028
12	2451	2.860290924887	1028
12	2456	2.865564389573	1028
12	2484	2.899412020954	1028
12	2500	2.916806678271	1028
12	2513	2.933378235419	1028
12	2524	2.961464138947	1028
12	2531	2.962509441946	1028
12	2540	2.972150143098	1028
12	2550	2.982688724043	1028
12	2564	3.021910680853	1028
12	2571	3.026056915858	1028
12	2575	3.029363251102	1028
12	2584	3.030631497191	1028
12	2588	3.030830290324	1028
12	2610	3.06266099251	1028
12	2623	3.075961909561	1028
12	2634	3.094415854135	1028
12	2641	3.098386772709	1028
12	2650	3.108981339248	1028
12	2654	3.109774443376	1028
12	2664	3.117752136371	1028
12	2684	3.163280421768	1028
12	2694	3.188379100639	1028
12	2701	3.19333185904	1028
12	2714	3.232438910766	1028
12	2721	3.23560183612	1028
12	2734	3.271388244226	1028
12	2744	3.305427926547	1028
12	2754	3.324693431704	1028
12	2763	3.336638995424	1028
12	2774	3.361524132981	1028
12	2781	3.365685172626	1028
12	2794	3.388366393003	1028
12	2803	3.399910536122	1028
12	2810	3.40007043906	1028
12	2814	3.405188868804	1028
12	2819	3.407112877938	1028
12	2844	3.455208273796	1028
12	2851	3.463017841904	1028
12	2860	3.471273163646	1028
12	2873	3.483515408701	1028
12	2880	3.489032904514	1028
12	2885	3.490799604962	1028
12	2903	3.511519205519	1028
12	2910	3.514045604977	1028
12	2920	3.522638148793	1028
12	2924	3.525686285333	1028
12	2928	3.526921905698	1028
12	2950	3.550704589791	1028
12	2964	3.594011881851	1028
12	2974	3.632891437454	1028
12	2984	3.661336088421	1028
12	2993	3.679185245473	1028
12	3001	3.684047440061	1028
12	3005	3.685062393962	1028
12	3014	3.691338005806	1028
12	3018	3.694509251376	1028
12	3027	3.696214757513	1028
12	3031	3.696873645984	1028
12	3047	3.71239142029	1028
12	3051	3.712529339293	1028
12	3067	3.730195789189	1028
12	3072	3.732102987345	1028
12	3076	3.73309733462	1028
12	3080	3.734223829187	1028
12	3096	3.74760247825	1028
12	3100	3.75098076652	1028
12	3110	3.757528659097	1028
12	3120	3.767308879068	1028
12	3142	3.790949569855	1028
12	3158	3.806530917482	1028
12	3162	3.810312837827	1028
12	3171	3.81200445244	1028
12	3176	3.81268805083	1028
12	3180	3.816995586651	1028
12	3189	3.820643245362	1028
12	3199	3.827952018826	1028
12	3210	3.841748915479	1028
12	3226	3.856022870495	1028
12	3230	3.860023710556	1028
12	3240	3.865758726406	1028
12	3244	3.868156992861	1028
12	3266	3.886801938885	1028
12	3270	3.887504273672	1028
12	3285	3.901832434119	1028
12	3302	3.919931016899	1028
12	3318	3.937959970424	1028
12	3322	3.941563871387	1028
12	3332	3.947181148826	1028
12	3342	3.957810276578	1028
12	3352	3.961633282753	1028
12	3361	3.967193963083	1028
12	3366	3.969827581014	1028
12	3376	3.977218612419	1028
12	3380	3.977766269013	1028
12	3396	3.997067283202	1028
12	3400	3.998028229473	1028
12	3410	4.006806773543	1028
12	3420	4.011204189045	1028
12	3430	4.021544198947	1028
14	14	0.022315250545	0
14	22	0.030539250545	0.00161141816
14	33	0.041385743993	0
14	42	0.049609743993	0.001317769637
14	54	0.07497426742	0
14	64	0.114753214779	0
14	72	0.122977214779	0.002420774741
14	83	0.139383193449	0
14	93	0.148415282809	0
14	103	0.158488477044	0
14	114	0.189667526074	0
14	130	0.197891526074	0.007339775734
14	135	0.206115526074	0.014469843421
14	145	0.214339526074	0.02244873636
14	151	0.222563526074	0.009222884399
14	162	0.231410052779	0
14	174	0.255893823874	0
14	184	0.302036486304	0
14	194	0.321299360989	0
14	202	0.329523360989	0.000796846484
14	213	0.346924946193	0
14	222	0.355148946193	0.006713507087
14	235	0.363372946193	0.002680324595
14	241	0.371596946193	0.009047568429
14	254	0.3972824235	0
14	263	0.406136351001	0
14	271	0.414360351001	0.001797211357
14	281	0.422584351001	0.006333847131
14	293	0.434109561779	0
14	302	0.442333561779	0.000915010922
14	312	0.451502567324	0
14	321	0.459726567324	0.00799637717
14	331	0.467950567324	0.004683805901
14	341	0.476174567324	0.001543845775
14	352	0.486145297277	0
14	364	0.520680277532	0
14	373	0.534421944988	0
14	382	0.542645944988	0.002877778059
14	391	0.550869944988	0.004207389178
14	403	0.561015849403	0
14	412	0.569239849403	0.007478616514
14	421	0.577463849403	0.002515666903
14	433	0.588275351848	0
14	446	0.596499351848	0.005389519527
14	459	0.604723351848	0.011957175266
14	469	0.612947351848	0.015633631695
14	479	0.621171351848	0.018432406972
14	485	0.629395351848	0.01652327345
14	491	0.637619351848	0.01781938172
14	504	0.673253932282	0
14	520	0.681477932282	0.006932378702
14	525	0.689701932282	0.012344760477
14	539	0.697925932282	0.018457797932
14	549	0.706149932282	0.013976885351
14	567	0.714373932282	0.018695918952
14	573	0.722597932282	0.01938461998
14	591	0.730821932282	0.024245295878
14	601	0.739045932282	0.030391766404
14	607	0.747269932282	0.037212301486
14	621	0.755493932282	0.03261943512
14	627	0.763717932282	0.039058887889
14	633	0.771941932282	0.044656320731
14	647	0.780165932282	0.047360153238
14	653	0.788389932282	0.034940173345
14	659	0.796613932282	0.041938434767
14	665	0.804837932282	0.028324607736
14	671	0.813061932282	0.035336190432
14	682	0.822714119365	0
14	691	0.830938119365	0.000635960843
14	704	0.875445285936	0
14	713	0.886587027899	0
14	723	0.902717971165	0
14	740	0.910941971165	0.007744284411
14	757	0.919165971165	0.011979361519
14	771	0.927389971165	0.018666680335
14	777	0.935613971165	0.022676567262
14	787	0.943837971165	0.029383903625
14	797	0.952061971165	0.033015492239
14	807	0.960285971165	0.03482087973
14	821	0.968509971165	0.042249310912
14	831	0.976733971165	0.036323036587
14	837	0.984957971165	0.034513866203
14	843	0.993181971165	0.039036888122
14	849	1.001405971165	0.038371780717
14	859	1.009629971165	0.045411977016
14	869	1.017853971165	0.043341229323
14	883	1.026077971165	0.019774158179
14	889	1.034301971165	0.02339543561
14	899	1.042525971165	0.018409284689
14	913	1.050749971165	0.024937316126
14	927	1.058973971165	0.018042110405
14	933	1.067197971165	0.022166260401
14	939	1.075421971165	0.027962055138
14	953	1.083645971165	0.025588506634
14	959	1.091869971165	0.033568757128
14	973	1.100093971165	0.020603864259
14	979	1.108317971165	0.028771385773
14	989	1.116541971165	0.023403776069
14	995	1.124765971165	0.027851116139
14	1001	1.132989971165	0.020130021654
14	1014	1.152161667644	0
14	1022	1.160385667644	0.00479174833
14	1031	1.168609667644	0.002715032716
14	1041	1.176833667644	0.000179942267
14	1053	1.186844375116	0
14	1062	1.195068375116	0.005194960085
14	1074	1.226500794914	0
14	1082	1.234724794914	0.001112511671
14	1094	1.256093801801	0
14	1103	1.270520664608	0
14	1112	1.278744664608	0.003987758401
14	1123	1.294927972662	0
14	1132	1.303151972662	0.002163775027
14	1144	1.326542190388	0
14	1153	1.336988620304	0
14	1164	1.362606585704	0
14	1173	1.376759180908	0
14	1183	1.392262092134	0
14	1193	1.400611685665	0
14	1204	1.438117305957	0
14	1213	1.450510870085	0
14	1222	1.458734870085	0.001607248118
14	1232	1.468316456532	0
14	1245	1.476540456532	0.007991442624
14	1251	1.484764456532	0.011908316034
14	1265	1.492988456532	0.00718047365
14	1271	1.501212456532	0.011293278154
14	1285	1.509436456532	0.007968777485
14	1299	1.517660456532	0.009473244644
14	1309	1.525884456532	0.015950356903
14	1315	1.534108456532	0.019923667316
14	1325	1.542332456532	0.018021005645
14	1335	1.550556456532	0.015520256705
14	1345	1.558780456532	0.013495299877
14	1351	1.567004456532	0.009011187252
14	1361	1.575228456532	0.004564991948
14	1371	1.583452456532	0.006013665935
14	1384	1.604662398509	0
14	1392	1.612886398509	0.002725925393
14	1401	1.621110398509	0.004080386776
14	1414	1.64372898762	0
14	1424	1.663419758555	0
14	1433	1.678023992499	0
14	1442	1.686247992499	0.006956648276
14	1454	1.709522729784	0
14	1463	1.724554020083	0
14	1474	1.805738706322	0
14	1482	1.813962706322	0.006281558959
14	1493	1.831992053168	0
14	1502	1.840216053168	0.006096093098
14	1515	1.848440053168	0.002848496011
14	1521	1.856664053168	0.009486291496
14	1533	1.869784908311	0
14	1544	1.889545537527	0
14	1553	1.899648109068	0
14	1566	1.907872109068	0.001949559639
14	1571	1.916096109068	0.009313455027
14	1581	1.924320109068	0.003192192232
14	1591	1.932544109068	0.00416460337
14	1603	1.943743516144	0
14	1614	1.967896788978	0
14	1624	2.012416316081	0
14	1634	2.035655242931	0
14	1646	2.043879242931	0.008082601217
14	1651	2.052103242931	0.010951567371
14	1665	2.060327242931	0.003463987003
14	1675	2.068551242931	0.0094284473
14	1693	2.076775242931	0.0088188741
14	1699	2.084999242931	0.016372433465
14	1709	2.093223242931	0.021918762968
14	1723	2.101447242931	0.029918417323
14	1729	2.109671242931	0.019201464658
14	1735	2.117895242931	0.024383396196
14	1741	2.126119242931	0.02752351098
14	1751	2.134343242931	0.004160884629
14	1763	2.144807919942	0
14	1776	2.153031919942	0.007835718344
14	1785	2.161255919942	0.013900230245
14	1795	2.169479919942	0.010466444348
14	1805	2.177703919942	0.008359360708
14	1811	2.185927919942	0.013323343864
14	1824	2.205260755149	0
14	1833	2.21668271164	0
14	1843	2.225887667495	0
14	1853	2.236584210418	0
14	1863	2.252301634874	0
14	1872	2.260525634874	0.003737362049
14	1889	2.268749634874	0.005866980577
14	1895	2.276973634874	0.011264685696
14	1901	2.285197634874	0.017016301114
14	1913	2.302850240863	0
14	1923	2.318994410062	0
14	1932	2.327218410062	0.000133065164
14	1949	2.335442410062	0.005260911997
14	1959	2.343666410062	0.009962820174
14	1969	2.351890410062	0.017469448619
14	1979	2.360114410062	0.018854677835
14	1993	2.368338410062	0.022594640302
14	2007	2.376562410062	0.016516343058
14	2017	2.384786410062	0.019047347574
14	2027	2.393010410062	0.02489573475
14	2037	2.401234410062	0.03281987451
14	2043	2.409458410062	0.040208462457
14	2049	2.417682410062	0.034782000391
14	2055	2.425906410062	0.035751025771
14	2065	2.434130410062	0.034745588158
14	2071	2.442354410062	0.015731507969
14	2084	2.482298732409	0
14	2092	2.490522732409	0.005290107735
14	2101	2.498746732409	0.000459254532
14	2115	2.506970732409	0.00501599571
14	2121	2.515194732409	0.012989589087
14	2131	2.523418732409	0.00416898762
14	2145	2.531642732409	0.007764735291
14	2151	2.539866732409	0.010185074641
14	2161	2.548090732409	0.007759051499
14	2173	2.561669400952	0
14	2183	2.573567452467	0
14	2194	2.598297307358	0
14	2202	2.606521307358	0.004389104142
14	2213	2.621328836518	0
14	2222	2.629552836518	0.005759826775
14	2234	2.660431225778	0
14	2243	2.674388585179	0
14	2252	2.682612585179	0.005311378076
14	2264	2.712634970432	0
14	2273	2.728385066348	0
14	2286	2.736609066348	0.004708582498
14	2299	2.744833066348	0.010053500265
14	2309	2.753057066348	0.009514768282
14	2323	2.761281066348	0.01742679534
14	2333	2.769505066348	0.022860495119
14	2343	2.777729066348	0.024450434671
14	2353	2.785953066348	0.027050316959
14	2359	2.794177066348	0.027800365242
14	2365	2.802401066348	0.032121773026
14	2379	2.810625066348	0.029740345154
14	2393	2.818849066348	0.014035874739
14	2399	2.827073066348	0.02075948366
14	2409	2.835297066348	0.020241197547
14	2419	2.843521066348	0.026765493129
14	2433	2.851745066348	0.019847741047
14	2443	2.859969066348	0.022020381848
14	2457	2.868193066348	0.02024384296
14	2463	2.876417066348	0.026038337796
14	2469	2.884641066348	0.032384628551
14	2475	2.892865066348	0.032574141461
14	2485	2.901089066348	0.035524676775
14	2491	2.909313066348	0.009901045394
14	2501	2.917537066348	0.000730388077
14	2513	2.933378235419	0
14	2524	2.961464138947	0
14	2532	2.969688138947	0.007178697001
14	2541	2.977912138947	0.005761995849
14	2551	2.986136138947	0.003447414904
14	2564	3.021910680853	0
14	2576	3.030134680853	0.004077764995
14	2589	3.038358680853	0.008995429751
14	2595	3.046582680853	0.015951183662
14	2601	3.054806680853	0.023976390529
14	2611	3.063030680853	0.000369688343
14	2623	3.075961909561	0
14	2634	3.094415854135	0
14	2642	3.102639854135	0.004253081426
14	2655	3.110863854135	0.001882514887
14	2665	3.119087854135	0.009313410759
14	2671	3.127311854135	0.009559717764
14	2684	3.163280421768	0
14	2694	3.188379100639	0
14	2702	3.196603100639	0.003271241599
14	2714	3.232438910766	0
14	2722	3.240662910766	0.005061074646
14	2734	3.271388244226	0
14	2744	3.305427926547	0
14	2754	3.324693431704	0
14	2763	3.336638995424	0
14	2774	3.361524132981	0
14	2782	3.369748132981	0.004062960355
14	2794	3.388366393003	0
14	2803	3.399910536122	0
14	2820	3.408134536122	0.008064097062
14	2825	3.416358536122	0.011169667318
14	2831	3.424582536122	0.017469658184
14	2844	3.455208273796	0
14	2852	3.463432273796	0.000414431892
14	2861	3.471656273796	0.00038311015
14	2873	3.483515408701	0
14	2886	3.491739408701	0.002706504187
14	2891	3.499963408701	0.009163803739
14	2903	3.511519205519	0
14	2912	3.519743205519	0.005697600542
14	2929	3.527967205519	0.005329056726
14	2935	3.536191205519	0.010504920186
14	2941	3.544415205519	0.017493299821
14	2951	3.552639205519	0.001934615728
14	2964	3.594011881851	0
14	2974	3.632891437454	0
14	2984	3.661336088421	0
14	2993	3.679185245473	0
14	3006	3.687409245473	0.003361805412
14	3019	3.695633245473	0.010570851511
14	3033	3.703857245473	0.012519239667
14	3039	3.712081245473	0.017571994097
14	3053	3.720305245473	0.02409048796
14	3059	3.728529245473	0.031655599489
14	3081	3.736753245473	0.024361825183
14	3087	3.744977245473	0.03244790618
14	3101	3.753201245473	0.023005456284
14	3111	3.761425245473	0.029322258128
14	3121	3.769649245473	0.036551910853
14	3127	3.777873245473	0.043649416286
14	3133	3.786097245473	0.038494767223
14	3143	3.794321245473	0.043340478953
14	3149	3.802545245473	0.045016586376
14	3163	3.810769245473	0.043460366405
14	3181	3.818993245473	0.028043675618
14	3191	3.827217245473	0.020686327991
14	3201	3.835441245473	0.025128407646
14	3211	3.843665245473	0.031660793033
14	3217	3.851889245473	0.039201194643
14	3231	3.860113245473	0.043117658822
14	3245	3.868337245473	0.047694000111
14	3251	3.876561245473	0.048609226647
14	3257	3.884785245473	0.043036329994
14	3271	3.893009245473	0.036986374978
14	3277	3.901233245473	0.041209534917
14	3287	3.909457245473	0.043698519067
14	3293	3.917681245473	0.049524252612
14	3303	3.925905245473	0.039103306588
14	3309	3.934129245473	0.046624971801
14	3323	3.942353245473	0.040520811354
14	3333	3.950577245473	0.030646228574
14	3343	3.958801245473	0.020841275049
14	3353	3.967025245473	0.025461374086
14	3367	3.975249245473	0.028068096647
14	3381	3.983473245473	0.025662968895
14	3387	3.991697245473	0.03006396272
14	3401	3.999921245473	0.03272728239
14	3411	4.008145245473	0.038317664459
14	3421	4.016369245473	0.039150633054
14	3431	4.024593245473	0.04682697646
14	3437	4.032817245473	0.035749962271
15	0	0	0
15	21	0.028927832385	1
15	22	0.030539250545	0
15	40	0.048291974356	1
15	42	0.049609743993	0
15	71	0.120556440038	1
15	72	0.122977214779	0
15	121	0.19055175034	1
15	125	0.191645682653	2
15	129	0.191890789714	3
15	130	0.197891526074	2
15	135	0.206115526074	1
15	144	0.213340641675	2
15	145	0.214339526074	1
15	151	0.222563526074	0
15	201	0.328726514505	1
15	202	0.329523360989	0
15	221	0.348435439106	1
15	222	0.355148946193	0
15	230	0.360692621598	1
15	234	0.362549377764	2
15	235	0.363372946193	1
15	241	0.371596946193	0
15	270	0.412563139644	1
15	271	0.414360351001	0
15	280	0.41625050387	1
15	281	0.422584351001	0
15	301	0.441418550857	1
15	302	0.442333561779	0
15	319	0.451730190154	1
15	321	0.459726567324	0
15	330	0.463266761423	1
15	331	0.467950567324	0
15	340	0.474630721549	1
15	341	0.476174567324	0
15	381	0.539768166929	1
15	382	0.542645944988	0
15	390	0.54666255581	1
15	391	0.550869944988	0
15	410	0.561761232889	1
15	412	0.569239849403	0
15	420	0.5749481825	1
15	421	0.577463849403	0
15	440	0.591109832321	1
15	444	0.592766176582	2
15	446	0.596499351848	1
15	454	0.597313720153	2
15	458	0.602738944876	3
15	459	0.604723351848	2
15	468	0.612872078398	3
15	469	0.612947351848	2
15	478	0.619799970128	3
15	479	0.621171351848	2
15	485	0.629395351848	1
15	491	0.637619351848	0
15	511	0.67454555358	1
15	515	0.677357171805	2
15	519	0.67946813435	3
15	520	0.681477932282	2
15	525	0.689701932282	1
15	534	0.692173046931	2
15	538	0.69567801333	3
15	539	0.697925932282	2
15	548	0.703213312302	3
15	549	0.706149932282	2
15	557	0.706576636404	3
15	562	0.708654165878	4
15	566	0.710057630796	5
15	567	0.714373932282	4
15	573	0.722597932282	3
15	581	0.722874497162	4
15	586	0.724659044393	5
15	590	0.727285611551	6
15	591	0.730821932282	5
15	600	0.732805779044	6
15	601	0.739045932282	5
15	607	0.747269932282	4
15	616	0.753449758937	5
15	620	0.754675497515	6
15	621	0.755493932282	5
15	627	0.763717932282	4
15	633	0.771941932282	3
15	642	0.776513324546	4
15	646	0.77772574185	5
15	647	0.780165932282	4
15	653	0.788389932282	3
15	659	0.796613932282	2
15	665	0.804837932282	1
15	671	0.813061932282	0
15	690	0.830302158522	1
15	691	0.830938119365	0
15	730	0.903197686754	1
15	735	0.907186609646	2
15	739	0.90872329083	3
15	740	0.910941971165	2
15	748	0.912937403903	3
15	752	0.91445406754	4
15	756	0.919046478926	5
15	757	0.919165971165	4
15	766	0.925465091435	5
15	770	0.926260660253	6
15	771	0.927389971165	5
15	777	0.935613971165	4
15	786	0.940410934578	5
15	787	0.943837971165	4
15	796	0.950444104962	5
15	797	0.952061971165	4
15	806	0.954145083043	5
15	807	0.960285971165	4
15	816	0.963034190448	5
15	820	0.964217994149	6
15	821	0.968509971165	5
15	830	0.974512741842	6
15	831	0.976733971165	5
15	837	0.984957971165	4
15	843	0.993181971165	3
15	849	1.001405971165	2
15	858	1.006303812986	3
15	859	1.009629971165	2
15	867	1.010906535555	3
15	869	1.017853971165	2
15	878	1.024116686476	3
15	882	1.025812655039	4
15	883	1.026077971165	3
15	889	1.034301971165	2
15	898	1.04093186076	3
15	899	1.042525971165	2
15	908	1.045031710764	3
15	912	1.047459916027	4
15	913	1.050749971165	3
15	922	1.058057464531	4
15	926	1.058301214037	5
15	927	1.058973971165	4
15	933	1.067197971165	3
15	939	1.075421971165	2
15	948	1.079490106906	3
15	952	1.079546585392	4
15	953	1.083645971165	3
15	959	1.091869971165	2
15	967	1.093138195096	3
15	972	1.096914855026	4
15	973	1.100093971165	3
15	979	1.108317971165	2
15	988	1.112859949511	3
15	989	1.116541971165	2
15	995	1.124765971165	1
15	1001	1.132989971165	0
15	1021	1.155593919314	1
15	1022	1.160385667644	0
15	1030	1.165894634928	1
15	1031	1.168609667644	0
15	1040	1.176653725377	1
15	1041	1.176833667644	0
15	1060	1.189873415031	1
15	1062	1.195068375116	0
15	1081	1.233612283243	1
15	1082	1.234724794914	0
15	1111	1.274756906207	1
15	1112	1.278744664608	0
15	1131	1.300988197635	1
15	1132	1.303151972662	0
15	1221	1.457127621967	1
15	1222	1.458734870085	0
15	1239	1.468549013908	1
15	1244	1.472856140498	2
15	1245	1.476540456532	1
15	1251	1.484764456532	0
15	1259	1.485807982882	1
15	1264	1.489919178378	2
15	1265	1.492988456532	1
15	1271	1.501212456532	0
15	1279	1.501467679047	1
15	1284	1.508187211888	2
15	1285	1.509436456532	1
15	1293	1.509934099629	2
15	1298	1.514184789216	3
15	1299	1.517660456532	2
15	1308	1.524311450887	3
15	1309	1.525884456532	2
15	1315	1.534108456532	1
15	1323	1.535036199827	2
15	1325	1.542332456532	1
15	1334	1.545285156655	2
15	1335	1.550556456532	1
15	1344	1.55799326928	2
15	1345	1.558780456532	1
15	1351	1.567004456532	0
15	1360	1.570663464584	1
15	1361	1.575228456532	0
15	1370	1.577438790597	1
15	1371	1.583452456532	0
15	1391	1.610160473116	1
15	1392	1.612886398509	0
15	1400	1.617030011733	1
15	1401	1.621110398509	0
15	1440	1.679291344223	1
15	1442	1.686247992499	0
15	1481	1.807681147363	1
15	1482	1.813962706322	0
15	1501	1.83411996007	1
15	1502	1.840216053168	0
15	1510	1.845591557157	1
15	1514	1.847177761672	2
15	1515	1.848440053168	1
15	1521	1.856664053168	0
15	1560	1.905922549429	1
15	1564	1.906782654041	2
15	1566	1.907872109068	1
15	1571	1.916096109068	0
15	1580	1.921127916836	1
15	1581	1.924320109068	0
15	1590	1.928379505698	1
15	1591	1.932544109068	0
15	1641	2.035796641714	1
15	1645	2.04115167556	2
15	1646	2.043879242931	1
15	1651	2.052103242931	0
15	1660	2.056863255928	1
15	1664	2.059122795631	2
15	1665	2.060327242931	1
15	1674	2.067956368831	2
15	1675	2.068551242931	1
15	1683	2.068626809466	2
15	1688	2.071304479963	3
15	1692	2.071528825608	4
15	1693	2.076775242931	3
15	1699	2.084999242931	2
15	1708	2.090469778273	3
15	1709	2.093223242931	2
15	1717	2.093511846735	3
15	1722	2.098595731951	4
15	1723	2.101447242931	3
15	1729	2.109671242931	2
15	1735	2.117895242931	1
15	1741	2.126119242931	0
15	1750	2.130182358302	1
15	1751	2.134343242931	0
15	1770	2.145196201598	1
15	1774	2.147355689697	2
15	1776	2.153031919942	1
15	1784	2.159013475594	2
15	1785	2.161255919942	1
15	1794	2.169344559234	2
15	1795	2.169479919942	1
15	1804	2.172604576078	2
15	1805	2.177703919942	1
15	1811	2.185927919942	0
15	1871	2.256788272825	1
15	1872	2.260525634874	0
15	1880	2.262882654297	1
15	1884	2.265708949178	2
15	1888	2.26818133376	3
15	1889	2.268749634874	2
15	1895	2.276973634874	1
15	1901	2.285197634874	0
15	1931	2.327085344898	1
15	1932	2.327218410062	0
15	1940	2.330181498065	1
15	1944	2.333703589888	2
15	1948	2.334420961443	3
15	1949	2.335442410062	2
15	1958	2.341259732227	3
15	1959	2.343666410062	2
15	1968	2.34574376976	3
15	1969	2.351890410062	2
15	1978	2.360046067004	3
15	1979	2.360114410062	2
15	1988	2.365739062488	3
15	1992	2.368114675312	4
15	1993	2.368338410062	3
15	2001	2.368414535552	4
15	2005	2.369249947605	5
15	2007	2.376562410062	4
15	2016	2.382900409671	5
15	2017	2.384786410062	4
15	2026	2.390155384291	5
15	2027	2.393010410062	4
15	2036	2.399384821904	5
15	2037	2.401234410062	4
15	2043	2.409458410062	3
15	2049	2.417682410062	2
15	2055	2.425906410062	1
15	2063	2.426622902093	2
15	2065	2.434130410062	1
15	2071	2.442354410062	0
15	2091	2.485232624674	1
15	2092	2.490522732409	0
15	2100	2.498287477877	1
15	2101	2.498746732409	0
15	2110	2.501954736699	1
15	2114	2.502205143322	2
15	2115	2.506970732409	1
15	2121	2.515194732409	0
15	2130	2.519249744789	1
15	2131	2.523418732409	0
15	2139	2.523877997118	1
15	2144	2.529681657768	2
15	2145	2.531642732409	1
15	2151	2.539866732409	0
15	2159	2.54033168091	1
15	2161	2.548090732409	0
15	2201	2.602132203216	1
15	2202	2.606521307358	0
15	2220	2.623793009743	1
15	2222	2.629552836518	0
15	2250	2.677301207103	1
15	2252	2.682612585179	0
15	2281	2.73190048385	1
15	2285	2.734779566083	2
15	2286	2.736609066348	1
15	2294	2.743542298066	2
15	2298	2.743854271008	3
15	2299	2.744833066348	2
15	2308	2.746644571229	3
15	2309	2.753057066348	2
15	2317	2.753278631677	3
15	2322	2.758902749389	4
15	2323	2.761281066348	3
15	2332	2.766376701106	4
15	2333	2.769505066348	3
15	2341	2.770279293322	4
15	2343	2.777729066348	3
15	2352	2.780884721194	4
15	2353	2.785953066348	3
15	2359	2.794177066348	2
15	2365	2.802401066348	1
15	2374	2.804813191609	2
15	2378	2.806313582688	3
15	2379	2.810625066348	2
15	2388	2.815055868801	3
15	2392	2.816755573219	4
15	2393	2.818849066348	3
15	2399	2.827073066348	2
15	2408	2.831897325301	3
15	2409	2.835297066348	2
15	2418	2.8379486845	3
15	2419	2.843521066348	2
15	2428	2.847949223388	3
15	2432	2.850378728552	4
15	2433	2.851745066348	3
15	2441	2.852256437797	4
15	2443	2.859969066348	3
15	2451	2.860290924887	4
15	2456	2.865564389573	5
15	2457	2.868193066348	4
15	2463	2.876417066348	3
15	2469	2.884641066348	2
15	2475	2.892865066348	1
15	2484	2.899412020954	2
15	2485	2.901089066348	1
15	2491	2.909313066348	0
15	2500	2.916806678271	1
15	2501	2.917537066348	0
15	2531	2.962509441946	1
15	2532	2.969688138947	0
15	2540	2.972150143098	1
15	2541	2.977912138947	0
15	2550	2.982688724043	1
15	2551	2.986136138947	0
15	2571	3.026056915858	1
15	2575	3.029363251102	2
15	2576	3.030134680853	1
15	2584	3.030631497191	2
15	2588	3.030830290324	3
15	2589	3.038358680853	2
15	2595	3.046582680853	1
15	2601	3.054806680853	0
15	2610	3.06266099251	1
15	2611	3.063030680853	0
15	2641	3.098386772709	1
15	2642	3.102639854135	0
15	2650	3.108981339248	1
15	2654	3.109774443376	2
15	2655	3.110863854135	1
15	2664	3.117752136371	2
15	2665	3.119087854135	1
15	2671	3.127311854135	0
15	2701	3.19333185904	1
15	2702	3.196603100639	0
15	2721	3.23560183612	1
15	2722	3.240662910766	0
15	2781	3.365685172626	1
15	2782	3.369748132981	0
15	2810	3.40007043906	1
15	2814	3.405188868804	2
15	2819	3.407112877938	3
15	2820	3.408134536122	2
15	2825	3.416358536122	1
15	2831	3.424582536122	0
15	2851	3.463017841904	1
15	2852	3.463432273796	0
15	2860	3.471273163646	1
15	2861	3.471656273796	0
15	2880	3.489032904514	1
15	2885	3.490799604962	2
15	2886	3.491739408701	1
15	2891	3.499963408701	0
15	2910	3.514045604977	1
15	2912	3.519743205519	0
15	2920	3.522638148793	1
15	2924	3.525686285333	2
15	2928	3.526921905698	3
15	2929	3.527967205519	2
15	2935	3.536191205519	1
15	2941	3.544415205519	0
15	2950	3.550704589791	1
15	2951	3.552639205519	0
15	3001	3.684047440061	1
15	3005	3.685062393962	2
15	3006	3.687409245473	1
15	3014	3.691338005806	2
15	3018	3.694509251376	3
15	3019	3.695633245473	2
15	3027	3.696214757513	3
15	3031	3.696873645984	4
15	3033	3.703857245473	3
15	3039	3.712081245473	2
15	3047	3.71239142029	3
15	3051	3.712529339293	4
15	3053	3.720305245473	3
15	3059	3.728529245473	2
15	3067	3.730195789189	3
15	3072	3.732102987345	4
15	3076	3.73309733462	5
15	3080	3.734223829187	6
15	3081	3.736753245473	5
15	3087	3.744977245473	4
15	3096	3.74760247825	5
15	3100	3.75098076652	6
15	3101	3.753201245473	5
15	3110	3.757528659097	6
15	3111	3.761425245473	5
15	3120	3.767308879068	6
15	3121	3.769649245473	5
15	3127	3.777873245473	4
15	3133	3.786097245473	3
15	3142	3.790949569855	4
15	3143	3.794321245473	3
15	3149	3.802545245473	2
15	3158	3.806530917482	3
15	3162	3.810312837827	4
15	3163	3.810769245473	3
15	3171	3.81200445244	4
15	3176	3.81268805083	5
15	3180	3.816995586651	6
15	3181	3.818993245473	5
15	3189	3.820643245362	6
15	3191	3.827217245473	5
15	3199	3.827952018826	6
15	3201	3.835441245473	5
15	3210	3.841748915479	6
15	3211	3.843665245473	5
15	3217	3.851889245473	4
15	3226	3.856022870495	5
15	3230	3.860023710556	6
15	3231	3.860113245473	5
15	3240	3.865758726406	6
15	3244	3.868156992861	7
15	3245	3.868337245473	6
15	3251	3.876561245473	5
15	3257	3.884785245473	4
15	3266	3.886801938885	5
15	3270	3.887504273672	6
15	3271	3.893009245473	5
15	3277	3.901233245473	4
15	3285	3.901832434119	5
15	3287	3.909457245473	4
15	3293	3.917681245473	3
15	3302	3.919931016899	4
15	3303	3.925905245473	3
15	3309	3.934129245473	2
15	3318	3.937959970424	3
15	3322	3.941563871387	4
15	3323	3.942353245473	3
15	3332	3.947181148826	4
15	3333	3.950577245473	3
15	3342	3.957810276578	4
15	3343	3.958801245473	3
15	3352	3.961633282753	4
15	3353	3.967025245473	3
15	3361	3.967193963083	4
15	3366	3.969827581014	5
15	3367	3.975249245473	4
15	3376	3.977218612419	5
15	3380	3.977766269013	6
15	3381	3.983473245473	5
15	3387	3.991697245473	4
15	3396	3.997067283202	5
15	3400	3.998028229473	6
15	3401	3.999921245473	5
15	3410	4.006806773543	6
15	3411	4.008145245473	5
15	3420	4.011204189045	6
15	3421	4.016369245473	5
15	3430	4.021544198947	6
15	3431	4.024593245473	5
15	3437	4.032817245473	4
17	15	0.022315250545	1028
17	23	0.030539250545	1028
17	34	0.041385743993	1028
17	43	0.049609743993	1028
17	55	0.07497426742	1028
17	65	0.114753214779	1028
17	73	0.122977214779	1028
17	84	0.139383193449	1028
17	94	0.148415282809	1028
17	104	0.158488477044	1028
17	115	0.189667526074	1028
17	131	0.197891526074	1028
17	136	0.206115526074	1028
17	146	0.214339526074	1028
17	152	0.222563526074	1028
17	163	0.231410052779	1028
17	175	0.255893823874	1028
17	185	0.302036486304	1028
17	195	0.321299360989	1028
17	203	0.329523360989	1028
17	214	0.346924946193	1028
17	223	0.355148946193	1028
17	236	0.363372946193	1028
17	242	0.371596946193	1028
17	255	0.3972824235	1028
17	264	0.406136351001	1028
17	272	0.414360351001	1028
17	282	0.422584351001	1028
17	294	0.434109561779	1028
17	303	0.442333561779	1028
17	313	0.451502567324	1028
17	322	0.459726567324	1028
17	332	0.467950567324	1028
17	342	0.476174567324	1028
17	353	0.486145297277	1028
17	365	0.520680277532	1028
17	374	0.534421944988	1028
17	383	0.542645944988	1028
17	392	0.550869944988	1028
17	404	0.561015849403	1028
17	413	0.569239849403	1028
17	422	0.577463849403	1028
17	434	0.588275351848	1028
17	447	0.596499351848	1028
17	460	0.604723351848	1028
17	470	0.612947351848	1028
17	480	0.621171351848	1028
17	486	0.629395351848	1028
17	492	0.637619351848	1028
17	505	0.673253932282	1028
17	521	0.681477932282	1028
17	526	0.689701932282	1028
17	540	0.697925932282	1028
17	550	0.706149932282	1028
17	568	0.714373932282	1028
17	574	0.722597932282	1028
17	592	0.730821932282	1028
17	602	0.739045932282	1028
17	608	0.747269932282	1028
17	622	0.755493932282	1028
17	628	0.763717932282	1028
17	634	0.771941932282	1028
17	648	0.780165932282	1028
17	654	0.788389932282	1028
17	660	0.796613932282	1028
17	666	0.804837932282	1028
17	672	0.813061932282	1028
17	683	0.822714119365	1028
17	692	0.830938119365	1028
17	705	0.875445285936	1028
17	714	0.886587027899	1028
17	724	0.902717971165	1028
17	741	0.910941971165	1028
17	758	0.919165971165	1028
17	772	0.927389971165	1028
17	778	0.935613971165	1028
17	788	0.943837971165	1028
17	798	0.952061971165	1028
17	808	0.960285971165	1028
17	822	0.968509971165	1028
17	832	0.976733971165	1028
17	838	0.984957971165	1028
17	844	0.993181971165	1028
17	850	1.001405971165	1028
17	860	1.009629971165	1028
17	870	1.017853971165	1028
17	884	1.026077971165	1028
17	890	1.034301971165	1028
17	900	1.042525971165	1028
17	914	1.050749971165	1028
17	928	1.058973971165	1028
17	934	1.067197971165	1028
17	940	1.075421971165	1028
17	954	1.083645971165	1028
17	960	1.091869971165	1028
17	974	1.100093971165	1028
17	980	1.108317971165	1028
17	990	1.116541971165	1028
17	996	1.124765971165	1028
17	1002	1.132989971165	1028
17	1015	1.152161667644	1028
17	1023	1.160385667644	1028
17	1032	1.168609667644	1028
17	1042	1.176833667644	1028
17	1054	1.186844375116	1028
17	1063	1.195068375116	1028
17	1075	1.226500794914	1028
17	1083	1.234724794914	1028
17	1095	1.256093801801	1028
17	1104	1.270520664608	1028
17	1113	1.278744664608	1028
17	1124	1.294927972662	1028
17	1133	1.303151972662	1028
17	1145	1.326542190388	1028
17	1154	1.336988620304	1028
17	1165	1.362606585704	1028
17	1174	1.376759180908	1028
17	1184	1.392262092134	1028
17	1194	1.400611685665	1028
17	1205	1.438117305957	1028
17	1214	1.450510870085	1028
17	1223	1.458734870085	1028
17	1233	1.468316456532	1028
17	1246	1.476540456532	1028
17	1252	1.484764456532	1028
17	1266	1.492988456532	1028
17	1272	1.501212456532	1028
17	1286	1.509436456532	1028
17	1300	1.517660456532	1028
17	1310	1.525884456532	1028
17	1316	1.534108456532	1028
17	1326	1.542332456532	1028
17	1336	1.550556456532	1028
17	1346	1.558780456532	1028
17	1352	1.567004456532	1028
17	1362	1.575228456532	1028
17	1372	1.583452456532	1028
17	1385	1.604662398509	1028
17	1393	1.612886398509	1028
17	1402	1.621110398509	1028
17	1415	1.64372898762	1028
17	1425	1.663419758555	1028
17	1434	1.678023992499	1028
17	1443	1.686247992499	1028
17	1455	1.709522729784	1028
17	1464	1.724554020083	1028
17	1475	1.805738706322	1028
17	1483	1.813962706322	1028
17	1494	1.831992053168	1028
17	1503	1.840216053168	1028
17	1516	1.848440053168	1028
17	1522	1.856664053168	1028
17	1534	1.869784908311	1028
17	1545	1.889545537527	1028
17	1554	1.899648109068	1028
17	1567	1.907872109068	1028
17	1572	1.916096109068	1028
17	1582	1.924320109068	1028
17	1592	1.932544109068	1028
17	1604	1.943743516144	1028
17	1615	1.967896788978	1028
17	1625	2.012416316081	1028
17	1635	2.035655242931	1028
17	1647	2.043879242931	1028
17	1652	2.052103242931	1028
17	1666	2.060327242931	1028
17	1676	2.068551242931	1028
17	1694	2.076775242931	1028
17	1700	2.084999242931	1028
17	1710	2.093223242931	1028
17	1724	2.101447242931	1028
17	1730	2.109671242931	1028
17	1736	2.117895242931	1028
17	1742	2.126119242931	1028
17	1752	2.134343242931	1028
17	1764	2.144807919942	1028
17	1777	2.153031919942	1028
17	1786	2.161255919942	1028
17	1796	2.169479919942	1028
17	1806	2.177703919942	1028
17	1812	2.185927919942	1028
17	1825	2.205260755149	1028
17	1834	2.21668271164	1028
17	1844	2.225887667495	1028
17	1854	2.236584210418	1028
17	1864	2.252301634874	1028
17	1873	2.260525634874	1028
17	1890	2.268749634874	1028
17	1896	2.276973634874	1028
17	1902	2.285197634874	1028
17	1914	2.302850240863	1028
17	1924	2.318994410062	1028
17	1933	2.327218410062	1028
17	1950	2.335442410062	1028
17	1960	2.343666410062	1028
17	1970	2.351890410062	1028
17	1980	2.360114410062	1028
17	1994	2.368338410062	1028
17	2008	2.376562410062	1028
17	2018	2.384786410062	1028
17	2028	2.393010410062	1028
17	2038	2.401234410062	1028
17	2044	2.409458410062	1028
17	2050	2.417682410062	1028
17	2056	2.425906410062	1028
17	2066	2.434130410062	1028
17	2072	2.442354410062	1028
17	2085	2.482298732409	1028
17	2093	2.490522732409	1028
17	2102	2.498746732409	1028
17	2116	2.506970732409	1028
17	2122	2.515194732409	1028
17	2132	2.523418732409	1028
17	2146	2.531642732409	1028
17	2152	2.539866732409	1028
17	2162	2.548090732409	1028
17	2174	2.561669400952	1028
17	2184	2.573567452467	1028
17	2195	2.598297307358	1028
17	2203	2.606521307358	1028
17	2214	2.621328836518	1028
17	2223	2.629552836518	1028
17	2235	2.660431225778	1028
17	2244	2.674388585179	1028
17	2253	2.682612585179	1028
17	2265	2.712634970432	1028
17	2274	2.728385066348	1028
17	2287	2.736609066348	1028
17	2300	2.744833066348	1028
17	2310	2.753057066348	1028
17	2324	2.761281066348	1028
17	2334	2.769505066348	1028
17	2344	2.777729066348	1028
17	2354	2.785953066348	1028
17	2360	2.794177066348	1028
17	2366	2.802401066348	1028
17	2380	2.810625066348	1028
17	2394	2.818849066348	1028
17	2400	2.827073066348	1028
17	2410	2.835297066348	1028
17	2420	2.843521066348	1028
17	2434	2.851745066348	1028
17	2444	2.859969066348	1028
17	2458	2.868193066348	1028
17	2464	2.876417066348	1028
17	2470	2.884641066348	1028
17	2476	2.892865066348	1028
17	2486	2.901089066348	1028
17	2492	2.909313066348	1028
17	2502	2.917537066348	1028
17	2514	2.933378235419	1028
17	2525	2.961464138947	1028
17	2533	2.969688138947	1028
17	2542	2.977912138947	1028
17	2552	2.986136138947	1028
17	2565	3.021910680853	1028
17	2577	3.030134680853	1028
17	2590	3.038358680853	1028
17	2596	3.046582680853	1028
17	2602	3.054806680853	1028
17	2612	3.063030680853	1028
17	2624	3.075961909561	1028
17	2635	3.094415854135	1028
17	2643	3.102639854135	1028
17	2656	3.110863854135	1028
17	2666	3.119087854135	1028
17	2672	3.127311854135	1028
17	2685	3.163280421768	1028
17	2695	3.188379100639	1028
17	2703	3.196603100639	1028
17	2715	3.232438910766	1028
17	2723	3.240662910766	1028
17	2735	3.271388244226	1028
17	2745	3.305427926547	1028
17	2755	3.324693431704	1028
17	2764	3.336638995424	1028
17	2775	3.361524132981	1028
17	2783	3.369748132981	1028
17	2795	3.388366393003	1028
17	2804	3.399910536122	1028
17	2821	3.408134536122	1028
17	2826	3.416358536122	1028
17	2832	3.424582536122	1028
17	2845	3.455208273796	1028
17	2853	3.463432273796	1028
17	2862	3.471656273796	1028
17	2874	3.483515408701	1028
17	2887	3.491739408701	1028
17	2892	3.499963408701	1028
17	2904	3.511519205519	1028
17	2913	3.519743205519	1028
17	2930	3.527967205519	1028
17	2936	3.536191205519	1028
17	2942	3.544415205519	1028
17	2952	3.552639205519	1028
17	2965	3.594011881851	1028
17	2975	3.632891437454	1028
17	2985	3.661336088421	1028
17	2994	3.679185245473	1028
17	3007	3.687409245473	1028
17	3020	3.695633245473	1028
17	3034	3.703857245473	1028
17	3040	3.712081245473	1028
17	3054	3.720305245473	1028
17	3060	3.728529245473	1028
17	3082	3.736753245473	1028
17	3088	3.744977245473	1028
17	3102	3.753201245473	1028
17	3112	3.761425245473	1028
17	3122	3.769649245473	1028
17	3128	3.777873245473	1028
17	3134	3.786097245473	1028
17	3144	3.794321245473	1028
17	3150	3.802545245473	1028
17	3164	3.810769245473	1028
17	3182	3.818993245473	1028
17	3192	3.827217245473	1028
17	3202	3.835441245473	1028
17	3212	3.843665245473	1028
17	3218	3.851889245473	1028
17	3232	3.860113245473	1028
17	3246	3.868337245473	1028
17	3252	3.876561245473	1028
17	3258	3.884785245473	1028
17	3272	3.893009245473	1028
17	3278	3.901233245473	1028
17	3288	3.909457245473	1028
17	3294	3.917681245473	1028
17	3304	3.925905245473	1028
17	3310	3.934129245473	1028
17	3324	3.942353245473	1028
17	3334	3.950577245473	1028
17	3344	3.958801245473	1028
17	3354	3.967025245473	1028
17	3368	3.975249245473	1028
17	3382	3.983473245473	1028
17	3388	3.991697245473	1028
17	3402	3.999921245473	1028
17	3412	4.008145245473	1028
17	3422	4.016369245473	1028
17	3432	4.024593245473	1028
17	3438	4.032817245473	1028
18	15	0.022315250545	1028
18	23	0.030539250545	1028
18	34	0.041385743993	1028
18	43	0.049609743993	1028
18	55	0.07497426742	1028
18	65	0.114753214779	1028
18	73	0.122977214779	1028
18	84	0.139383193449	1028
18	94	0.148415282809	1028
18	104	0.158488477044	1028
18	115	0.189667526074	1028
18	131	0.197891526074	1028
18	136	0.206115526074	1028
18	146	0.214339526074	1028
18	152	0.222563526074	1028
18	163	0.231410052779	1028
18	175	0.255893823874	1028
18	185	0.302036486304	1028
18	195	0.321299360989	1028
18	203	0.329523360989	1028
18	214	0.346924946193	1028
18	223	0.355148946193	1028
18	236	0.363372946193	1028
18	242	0.371596946193	1028
18	255	0.3972824235	1028
18	264	0.406136351001	1028
18	272	0.414360351001	1028
18	282	0.422584351001	1028
18	294	0.434109561779	1028
18	303	0.442333561779	1028
18	313	0.451502567324	1028
18	322	0.459726567324	1028
18	332	0.467950567324	1028
18	342	0.476174567324	1028
18	353	0.486145297277	1028
18	365	0.520680277532	1028
18	374	0.534421944988	1028
18	383	0.542645944988	1028
18	392	0.550869944988	1028
18	404	0.561015849403	1028
18	413	0.569239849403	1028
18	422	0.577463849403	1028
18	434	0.588275351848	1028
18	447	0.596499351848	1028
18	460	0.604723351848	1028
18	470	0.612947351848	1028
18	480	0.621171351848	1028
18	486	0.629395351848	1028
18	492	0.637619351848	1028
18	505	0.673253932282	1028
18	521	0.681477932282	1028
18	526	0.689701932282	1028
18	540	0.697925932282	1028
18	550	0.706149932282	1028
18	568	0.714373932282	1028
18	574	0.722597932282	1028
18	592	0.730821932282	1028
18	602	0.739045932282	1028
18	608	0.747269932282	1028
18	622	0.755493932282	1028
18	628	0.763717932282	1028
18	634	0.771941932282	1028
18	648	0.780165932282	1028
18	654	0.788389932282	1028
18	660	0.796613932282	1028
18	666	0.804837932282	1028
18	672	0.813061932282	1028
18	683	0.822714119365	1028
18	692	0.830938119365	1028
18	705	0.875445285936	1028
18	714	0.886587027899	1028
18	724	0.902717971165	1028
18	741	0.910941971165	1028
18	758	0.919165971165	1028
18	772	0.927389971165	1028
18	778	0.935613971165	1028
18	788	0.943837971165	1028
18	798	0.952061971165	1028
18	808	0.960285971165	1028
18	822	0.968509971165	1028
18	832	0.976733971165	1028
18	838	0.984957971165	1028
18	844	0.993181971165	1028
18	850	1.001405971165	1028
18	860	1.009629971165	1028
18	870	1.017853971165	1028
18	884	1.026077971165	1028
18	890	1.034301971165	1028
18	900	1.042525971165	1028
18	914	1.050749971165	1028
18	928	1.058973971165	1028
18	934	1.067197971165	1028
18	940	1.075421971165	1028
18	954	1.083645971165	1028
18	960	1.091869971165	1028
18	974	1.100093971165	1028
18	980	1.108317971165	1028
18	990	1.116541971165	1028
18	996	1.124765971165	1028
18	1002	1.132989971165	1028
18	1015	1.152161667644	1028
18	1023	1.160385667644	1028
18	1032	1.168609667644	1028
18	1042	1.176833667644	1028
18	1054	1.186844375116	1028
18	1063	1.195068375116	1028
18	1075	1.226500794914	1028
18	1083	1.234724794914	1028
18	1095	1.256093801801	1028
18	1104	1.270520664608	1028
18	1113	1.278744664608	1028
18	1124	1.294927972662	1028
18	1133	1.303151972662	1028
18	1145	1.326542190388	1028
18	1154	1.336988620304	1028
18	1165	1.362606585704	1028
18	1174	1.376759180908	1028
18	1184	1.392262092134	1028
18	1194	1.400611685665	1028
18	1205	1.438117305957	1028
18	1214	1.450510870085	1028
18	1223	1.458734870085	1028
18	1233	1.468316456532	1028
18	1246	1.476540456532	1028
18	1252	1.484764456532	1028
18	1266	1.492988456532	1028
18	1272	1.501212456532	1028
18	1286	1.509436456532	1028
18	1300	1.517660456532	1028
18	1310	1.525884456532	1028
18	1316	1.534108456532	1028
18	1326	1.542332456532	1028
18	1336	1.550556456532	1028
18	1346	1.558780456532	1028
18	1352	1.567004456532	1028
18	1362	1.575228456532	1028
18	1372	1.583452456532	1028
18	1385	1.604662398509	1028
18	1393	1.612886398509	1028
18	1402	1.621110398509	1028
18	1415	1.64372898762	1028
18	1425	1.663419758555	1028
18	1434	1.678023992499	1028
18	1443	1.686247992499	1028
18	1455	1.709522729784	1028
18	1464	1.724554020083	1028
18	1475	1.805738706322	1028
18	1483	1.813962706322	1028
18	1494	1.831992053168	1028
18	1503	1.840216053168	1028
18	1516	1.848440053168	1028
18	1522	1.856664053168	1028
18	1534	1.869784908311	1028
18	1545	1.889545537527	1028
18	1554	1.899648109068	1028
18	1567	1.907872109068	1028
18	1572	1.916096109068	1028
18	1582	1.924320109068	1028
18	1592	1.932544109068	1028
18	1604	1.943743516144	1028
18	1615	1.967896788978	1028
18	1625	2.012416316081	1028
18	1635	2.035655242931	1028
18	1647	2.043879242931	1028
18	1652	2.052103242931	1028
18	1666	2.060327242931	1028
18	1676	2.068551242931	1028
18	1694	2.076775242931	1028
18	1700	2.084999242931	1028
18	1710	2.093223242931	1028
18	1724	2.101447242931	1028
18	1730	2.109671242931	1028
18	1736	2.117895242931	1028
18	1742	2.126119242931	1028
18	1752	2.134343242931	1028
18	1764	2.144807919942	1028
18	1777	2.153031919942	1028
18	1786	2.161255919942	1028
18	1796	2.169479919942	1028
18	1806	2.177703919942	1028
18	1812	2.185927919942	1028
18	1825	2.205260755149	1028
18	1834	2.21668271164	1028
18	1844	2.225887667495	1028
18	1854	2.236584210418	1028
18	1864	2.252301634874	1028
18	1873	2.260525634874	1028
18	1890	2.268749634874	1028
18	1896	2.276973634874	1028
18	1902	2.285197634874	1028
18	1914	2.302850240863	1028
18	1924	2.318994410062	1028
18	1933	2.327218410062	1028
18	1950	2.335442410062	1028
18	1960	2.343666410062	1028
18	1970	2.351890410062	1028
18	1980	2.360114410062	1028
18	1994	2.368338410062	1028
18	2008	2.376562410062	1028
18	2018	2.384786410062	1028
18	2028	2.393010410062	1028
18	2038	2.401234410062	1028
18	2044	2.409458410062	1028
18	2050	2.417682410062	1028
18	2056	2.425906410062	1028
18	2066	2.434130410062	1028
18	2072	2.442354410062	1028
18	2085	2.482298732409	1028
18	2093	2.490522732409	1028
18	2102	2.498746732409	1028
18	2116	2.506970732409	1028
18	2122	2.515194732409	1028
18	2132	2.523418732409	1028
18	2146	2.531642732409	1028
18	2152	2.539866732409	1028
18	2162	2.548090732409	1028
18	2174	2.561669400952	1028
18	2184	2.573567452467	1028
18	2195	2.598297307358	1028
18	2203	2.606521307358	1028
18	2214	2.621328836518	1028
18	2223	2.629552836518	1028
18	2235	2.660431225778	1028
18	2244	2.674388585179	1028
18	2253	2.682612585179	1028
18	2265	2.712634970432	1028
18	2274	2.728385066348	1028
18	2287	2.736609066348	1028
18	2300	2.744833066348	1028
18	2310	2.753057066348	1028
18	2324	2.761281066348	1028
18	2334	2.769505066348	1028
18	2344	2.777729066348	1028
18	2354	2.785953066348	1028
18	2360	2.794177066348	1028
18	2366	2.802401066348	1028
18	2380	2.810625066348	1028
18	2394	2.818849066348	1028
18	2400	2.827073066348	1028
18	2410	2.835297066348	1028
18	2420	2.843521066348	1028
18	2434	2.851745066348	1028
18	2444	2.859969066348	1028
18	2458	2.868193066348	1028
18	2464	2.876417066348	1028
18	2470	2.884641066348	1028
18	2476	2.892865066348	1028
18	2486	2.901089066348	1028
18	2492	2.909313066348	1028
18	2502	2.917537066348	1028
18	2514	2.933378235419	1028
18	2525	2.961464138947	1028
18	2533	2.969688138947	1028
18	2542	2.977912138947	1028
18	2552	2.986136138947	1028
18	2565	3.021910680853	1028
18	2577	3.030134680853	1028
18	2590	3.038358680853	1028
18	2596	3.046582680853	1028
18	2602	3.054806680853	1028
18	2612	3.063030680853	1028
18	2624	3.075961909561	1028
18	2635	3.094415854135	1028
18	2643	3.102639854135	1028
18	2656	3.110863854135	1028
18	2666	3.119087854135	1028
18	2672	3.127311854135	1028
18	2685	3.163280421768	1028
18	2695	3.188379100639	1028
18	2703	3.196603100639	1028
18	2715	3.232438910766	1028
18	2723	3.240662910766	1028
18	2735	3.271388244226	1028
18	2745	3.305427926547	1028
18	2755	3.324693431704	1028
18	2764	3.336638995424	1028
18	2775	3.361524132981	1028
18	2783	3.369748132981	1028
18	2795	3.388366393003	1028
18	2804	3.399910536122	1028
18	2821	3.408134536122	1028
18	2826	3.416358536122	1028
18	2832	3.424582536122	1028
18	2845	3.455208273796	1028
18	2853	3.463432273796	1028
18	2862	3.471656273796	1028
18	2874	3.483515408701	1028
18	2887	3.491739408701	1028
18	2892	3.499963408701	1028
18	2904	3.511519205519	1028
18	2913	3.519743205519	1028
18	2930	3.527967205519	1028
18	2936	3.536191205519	1028
18	2942	3.544415205519	1028
18	2952	3.552639205519	1028
18	2965	3.594011881851	1028
18	2975	3.632891437454	1028
18	2985	3.661336088421	1028
18	2994	3.679185245473	1028
18	3007	3.687409245473	1028
18	3020	3.695633245473	1028
18	3034	3.703857245473	1028
18	3040	3.712081245473	1028
18	3054	3.720305245473	1028
18	3060	3.728529245473	1028
18	3082	3.736753245473	1028
18	3088	3.744977245473	1028
18	3102	3.753201245473	1028
18	3112	3.761425245473	1028
18	3122	3.769649245473	1028
18	3128	3.777873245473	1028
18	3134	3.786097245473	1028
18	3144	3.794321245473	1028
18	3150	3.802545245473	1028
18	3164	3.810769245473	1028
18	3182	3.818993245473	1028
18	3192	3.827217245473	1028
18	3202	3.835441245473	1028
18	3212	3.843665245473	1028
18	3218	3.851889245473	1028
18	3232	3.860113245473	1028
18	3246	3.868337245473	1028
18	3252	3.876561245473	1028
18	3258	3.884785245473	1028
18	3272	3.893009245473	1028
18	3278	3.901233245473	1028
18	3288	3.909457245473	1028
18	3294	3.917681245473	1028
18	3304	3.925905245473	1028
18	3310	3.934129245473	1028
18	3324	3.942353245473	1028
18	3334	3.950577245473	1028
18	3344	3.958801245473	1028
18	3354	3.967025245473	1028
18	3368	3.975249245473	1028
18	3382	3.983473245473	1028
18	3388	3.991697245473	1028
18	3402	3.999921245473	1028
18	3412	4.008145245473	1028
18	3422	4.016369245473	1028
18	3432	4.024593245473	1028
18	3438	4.032817245473	1028
21	0	0	0
21	0	0	2
21	15	0.022315250545	3
21	22	0.030539250545	2
21	23	0.030539250545	3
21	27	0.038763250545	2
21	34	0.041385743993	3
21	42	0.049609743993	2
21	43	0.049609743993	3
21	47	0.057833743993	2
21	55	0.07497426742	3
21	58	0.08319826742	2
21	65	0.114753214779	3
21	72	0.122977214779	2
21	73	0.122977214779	3
21	77	0.131201214779	2
21	84	0.139383193449	3
21	88	0.147607193449	2
21	94	0.148415282809	3
21	97	0.156639282809	2
21	104	0.158488477044	3
21	108	0.166712477044	2
21	115	0.189667526074	3
21	130	0.197891526074	2
21	131	0.197891526074	3
21	135	0.206115526074	2
21	136	0.206115526074	3
21	145	0.214339526074	2
21	146	0.214339526074	3
21	151	0.222563526074	2
21	152	0.222563526074	3
21	157	0.230787526074	2
21	163	0.231410052779	3
21	167	0.239634052779	2
21	175	0.255893823874	3
21	178	0.264117823874	2
21	185	0.302036486304	3
21	188	0.310260486304	2
21	195	0.321299360989	3
21	202	0.329523360989	2
21	203	0.329523360989	3
21	207	0.337747360989	2
21	214	0.346924946193	3
21	222	0.355148946193	2
21	223	0.355148946193	3
21	235	0.363372946193	2
21	236	0.363372946193	3
21	241	0.371596946193	2
21	242	0.371596946193	3
21	247	0.379820946193	2
21	255	0.3972824235	3
21	258	0.4055064235	2
21	264	0.406136351001	3
21	271	0.414360351001	2
21	272	0.414360351001	3
21	281	0.422584351001	2
21	282	0.422584351001	3
21	287	0.430808351001	2
21	294	0.434109561779	3
21	302	0.442333561779	2
21	303	0.442333561779	3
21	307	0.450557561779	2
21	313	0.451502567324	3
21	321	0.459726567324	2
21	322	0.459726567324	3
21	331	0.467950567324	2
21	332	0.467950567324	3
21	341	0.476174567324	2
21	342	0.476174567324	3
21	347	0.484398567324	2
21	353	0.486145297277	3
21	357	0.494369297277	2
21	365	0.520680277532	3
21	368	0.528904277532	2
21	374	0.534421944988	3
21	382	0.542645944988	2
21	383	0.542645944988	3
21	391	0.550869944988	2
21	392	0.550869944988	3
21	397	0.559093944988	2
21	404	0.561015849403	3
21	412	0.569239849403	2
21	413	0.569239849403	3
21	421	0.577463849403	2
21	422	0.577463849403	3
21	427	0.585687849403	2
21	434	0.588275351848	3
21	446	0.596499351848	2
21	447	0.596499351848	3
21	459	0.604723351848	2
21	460	0.604723351848	3
21	469	0.612947351848	2
21	470	0.612947351848	3
21	479	0.621171351848	2
21	480	0.621171351848	3
21	485	0.629395351848	2
21	486	0.629395351848	3
21	491	0.637619351848	2
21	492	0.637619351848	3
21	497	0.645843351848	2
21	505	0.673253932282	3
21	520	0.681477932282	2
21	521	0.681477932282	3
21	525	0.689701932282	2
21	526	0.689701932282	3
21	539	0.697925932282	2
21	540	0.697925932282	3
21	549	0.706149932282	2
21	550	0.706149932282	3
21	567	0.714373932282	2
21	568	0.714373932282	3
21	573	0.722597932282	2
21	574	0.722597932282	3
21	591	0.730821932282	2
21	592	0.730821932282	3
21	601	0.739045932282	2
21	602	0.739045932282	3
21	607	0.747269932282	2
21	608	0.747269932282	3
21	621	0.755493932282	2
21	622	0.755493932282	3
21	627	0.763717932282	2
21	628	0.763717932282	3
21	633	0.771941932282	2
21	634	0.771941932282	3
21	647	0.780165932282	2
21	648	0.780165932282	3
21	653	0.788389932282	2
21	654	0.788389932282	3
21	659	0.796613932282	2
21	660	0.796613932282	3
21	665	0.804837932282	2
21	666	0.804837932282	3
21	671	0.813061932282	2
21	672	0.813061932282	3
21	677	0.821285932282	2
21	683	0.822714119365	3
21	691	0.830938119365	2
21	692	0.830938119365	3
21	697	0.839162119365	2
21	705	0.875445285936	3
21	708	0.883669285936	2
21	714	0.886587027899	3
21	718	0.894811027899	2
21	724	0.902717971165	3
21	740	0.910941971165	2
21	741	0.910941971165	3
21	757	0.919165971165	2
21	758	0.919165971165	3
21	771	0.927389971165	2
21	772	0.927389971165	3
21	777	0.935613971165	2
21	778	0.935613971165	3
21	787	0.943837971165	2
21	788	0.943837971165	3
21	797	0.952061971165	2
21	798	0.952061971165	3
21	807	0.960285971165	2
21	808	0.960285971165	3
21	821	0.968509971165	2
21	822	0.968509971165	3
21	831	0.976733971165	2
21	832	0.976733971165	3
21	837	0.984957971165	2
21	838	0.984957971165	3
21	843	0.993181971165	2
21	844	0.993181971165	3
21	849	1.001405971165	2
21	850	1.001405971165	3
21	859	1.009629971165	2
21	860	1.009629971165	3
21	869	1.017853971165	2
21	870	1.017853971165	3
21	883	1.026077971165	2
21	884	1.026077971165	3
21	889	1.034301971165	2
21	890	1.034301971165	3
21	899	1.042525971165	2
21	900	1.042525971165	3
21	913	1.050749971165	2
21	914	1.050749971165	3
21	927	1.058973971165	2
21	928	1.058973971165	3
21	933	1.067197971165	2
21	934	1.067197971165	3
21	939	1.075421971165	2
21	940	1.075421971165	3
21	953	1.083645971165	2
21	954	1.083645971165	3
21	959	1.091869971165	2
21	960	1.091869971165	3
21	973	1.100093971165	2
21	974	1.100093971165	3
21	979	1.108317971165	2
21	980	1.108317971165	3
21	989	1.116541971165	2
21	990	1.116541971165	3
21	995	1.124765971165	2
21	996	1.124765971165	3
21	1001	1.132989971165	2
21	1002	1.132989971165	3
21	1007	1.141213971165	2
21	1015	1.152161667644	3
21	1022	1.160385667644	2
21	1023	1.160385667644	3
21	1031	1.168609667644	2
21	1032	1.168609667644	3
21	1041	1.176833667644	2
21	1042	1.176833667644	3
21	1047	1.185057667644	2
21	1054	1.186844375116	3
21	1062	1.195068375116	2
21	1063	1.195068375116	3
21	1067	1.203292375116	2
21	1075	1.226500794914	3
21	1082	1.234724794914	2
21	1083	1.234724794914	3
21	1087	1.242948794914	2
21	1095	1.256093801801	3
21	1098	1.264317801801	2
21	1104	1.270520664608	3
21	1112	1.278744664608	2
21	1113	1.278744664608	3
21	1117	1.286968664608	2
21	1124	1.294927972662	3
21	1132	1.303151972662	2
21	1133	1.303151972662	3
21	1137	1.311375972662	2
21	1145	1.326542190388	3
21	1148	1.334766190388	2
21	1154	1.336988620304	3
21	1158	1.345212620304	2
21	1165	1.362606585704	3
21	1168	1.370830585704	2
21	1174	1.376759180908	3
21	1178	1.384983180908	2
21	1184	1.392262092134	3
21	1188	1.400486092134	2
21	1194	1.400611685665	3
21	1197	1.408835685665	2
21	1205	1.438117305957	3
21	1208	1.446341305957	2
21	1214	1.450510870085	3
21	1222	1.458734870085	2
21	1223	1.458734870085	3
21	1227	1.466958870085	2
21	1233	1.468316456532	3
21	1245	1.476540456532	2
21	1246	1.476540456532	3
21	1251	1.484764456532	2
21	1252	1.484764456532	3
[...]
23	1434	1.678023992499	1
23	1435	1.678023992499	2
23	1442	1.686247992499	1
23	1442	1.686247992499	0
23	1443	1.686247992499	1
23	1444	1.686247992499	2
23	1447	1.694471992499	1
23	1447	1.694471992499	0
23	1455	1.709522729784	1
23	1456	1.709522729784	2
23	1458	1.717746729784	1
23	1458	1.717746729784	0
23	1464	1.724554020083	1
23	1465	1.724554020083	2
23	1468	1.732778020083	1
23	1468	1.732778020083	0
23	1475	1.805738706322	1
23	1476	1.805738706322	2
23	1482	1.813962706322	1
23	1482	1.813962706322	0
23	1483	1.813962706322	1
23	1484	1.813962706322	2
23	1487	1.822186706322	1
23	1487	1.822186706322	0
23	1494	1.831992053168	1
23	1495	1.831992053168	2
23	1502	1.840216053168	1
23	1502	1.840216053168	0
23	1503	1.840216053168	1
23	1504	1.840216053168	2
23	1515	1.848440053168	1
23	1515	1.848440053168	0
23	1516	1.848440053168	1
23	1517	1.848440053168	2
23	1521	1.856664053168	1
23	1521	1.856664053168	0
23	1522	1.856664053168	1
23	1523	1.856664053168	2
23	1527	1.864888053168	1
23	1527	1.864888053168	0
23	1534	1.869784908311	1
23	1535	1.869784908311	2
23	1538	1.878008908311	1
23	1538	1.878008908311	0
23	1545	1.889545537527	1
23	1546	1.889545537527	2
23	1548	1.897769537527	1
23	1548	1.897769537527	0
23	1554	1.899648109068	1
23	1555	1.899648109068	2
23	1566	1.907872109068	1
23	1566	1.907872109068	0
23	1567	1.907872109068	1
23	1568	1.907872109068	2
23	1571	1.916096109068	1
23	1571	1.916096109068	0
23	1572	1.916096109068	1
23	1573	1.916096109068	2
23	1581	1.924320109068	1
23	1581	1.924320109068	0
23	1582	1.924320109068	1
23	1583	1.924320109068	2
23	1591	1.932544109068	1
23	1591	1.932544109068	0
23	1592	1.932544109068	1
23	1593	1.932544109068	2
23	1597	1.940768109068	1
23	1597	1.940768109068	0
23	1604	1.943743516144	1
23	1605	1.943743516144	2
23	1608	1.951967516144	1
23	1608	1.951967516144	0
23	1615	1.967896788978	1
23	1616	1.967896788978	2
23	1618	1.976120788978	1
23	1618	1.976120788978	0
23	1625	2.012416316081	1
23	1626	2.012416316081	2
23	1628	2.020640316081	1
23	1628	2.020640316081	0
23	1635	2.035655242931	1
23	1636	2.035655242931	2
23	1646	2.043879242931	1
23	1646	2.043879242931	0
23	1647	2.043879242931	1
23	1648	2.043879242931	2
23	1651	2.052103242931	1
23	1651	2.052103242931	0
23	1652	2.052103242931	1
23	1653	2.052103242931	2
23	1665	2.060327242931	1
23	1665	2.060327242931	0
23	1666	2.060327242931	1
23	1667	2.060327242931	2
23	1675	2.068551242931	1
23	1675	2.068551242931	0
23	1676	2.068551242931	1
23	1677	2.068551242931	2
23	1693	2.076775242931	1
23	1693	2.076775242931	0
23	1694	2.076775242931	1
23	1695	2.076775242931	2
23	1699	2.084999242931	1
23	1699	2.084999242931	0
23	1700	2.084999242931	1
23	1701	2.084999242931	2
23	1709	2.093223242931	1
23	1709	2.093223242931	0
23	1710	2.093223242931	1
23	1711	2.093223242931	2
23	1723	2.101447242931	1
23	1723	2.101447242931	0
23	1724	2.101447242931	1
23	1725	2.101447242931	2
23	1729	2.109671242931	1
23	1729	2.109671242931	0
23	1730	2.109671242931	1
23	1731	2.109671242931	2
23	1735	2.117895242931	1
23	1735	2.117895242931	0
23	1736	2.117895242931	1
23	1737	2.117895242931	2
23	1741	2.126119242931	1
23	1741	2.126119242931	0
23	1742	2.126119242931	1
23	1743	2.126119242931	2
23	1751	2.134343242931	1
23	1751	2.134343242931	0
23	1752	2.134343242931	1
23	1753	2.134343242931	2
23	1757	2.142567242931	1
23	1757	2.142567242931	0
23	1764	2.144807919942	1
23	1765	2.144807919942	2
23	1776	2.153031919942	1
23	1776	2.153031919942	0
23	1777	2.153031919942	1
23	1778	2.153031919942	2
23	1785	2.161255919942	1
23	1785	2.161255919942	0
23	1786	2.161255919942	1
23	1787	2.161255919942	2
23	1795	2.169479919942	1
23	1795	2.169479919942	0
23	1796	2.169479919942	1
23	1797	2.169479919942	2
23	1805	2.177703919942	1
23	1805	2.177703919942	0
23	1806	2.177703919942	1
23	1807	2.177703919942	2
23	1811	2.185927919942	1
23	1811	2.185927919942	0
23	1812	2.185927919942	1
23	1813	2.185927919942	2
23	1817	2.194151919942	1
23	1817	2.194151919942	0
23	1825	2.205260755149	1
23	1826	2.205260755149	2
23	1828	2.213484755149	1
23	1828	2.213484755149	0
23	1834	2.21668271164	1
23	1835	2.21668271164	2
23	1838	2.22490671164	1
23	1838	2.22490671164	0
23	1844	2.225887667495	1
23	1845	2.225887667495	2
23	1847	2.234111667495	1
23	1847	2.234111667495	0
23	1854	2.236584210418	1
23	1855	2.236584210418	2
23	1858	2.244808210418	1
23	1858	2.244808210418	0
23	1864	2.252301634874	1
23	1865	2.252301634874	2
23	1872	2.260525634874	1
23	1872	2.260525634874	0
23	1873	2.260525634874	1
23	1874	2.260525634874	2
23	1889	2.268749634874	1
23	1889	2.268749634874	0
23	1890	2.268749634874	1
23	1891	2.268749634874	2
23	1895	2.276973634874	1
23	1895	2.276973634874	0
23	1896	2.276973634874	1
23	1897	2.276973634874	2
23	1901	2.285197634874	1
23	1901	2.285197634874	0
23	1902	2.285197634874	1
23	1903	2.285197634874	2
23	1907	2.293421634874	1
23	1907	2.293421634874	0
23	1914	2.302850240863	1
23	1915	2.302850240863	2
23	1918	2.311074240863	1
23	1918	2.311074240863	0
23	1924	2.318994410062	1
23	1925	2.318994410062	2
23	1932	2.327218410062	1
23	1932	2.327218410062	0
23	1933	2.327218410062	1
23	1934	2.327218410062	2
23	1949	2.335442410062	1
23	1949	2.335442410062	0
23	1950	2.335442410062	1
23	1951	2.335442410062	2
23	1959	2.343666410062	1
23	1959	2.343666410062	0
23	1960	2.343666410062	1
23	1961	2.343666410062	2
23	1969	2.351890410062	1
23	1969	2.351890410062	0
23	1970	2.351890410062	1
23	1971	2.351890410062	2
23	1979	2.360114410062	1
23	1979	2.360114410062	0
23	1980	2.360114410062	1
23	1981	2.360114410062	2
23	1993	2.368338410062	1
23	1993	2.368338410062	0
23	1994	2.368338410062	1
23	1995	2.368338410062	2
23	2007	2.376562410062	1
23	2007	2.376562410062	0
23	2008	2.376562410062	1
23	2009	2.376562410062	2
23	2017	2.384786410062	1
23	2017	2.384786410062	0
23	2018	2.384786410062	1
23	2019	2.384786410062	2
23	2027	2.393010410062	1
23	2027	2.393010410062	0
23	2028	2.393010410062	1
23	2029	2.393010410062	2
23	2037	2.401234410062	1
23	2037	2.401234410062	0
23	2038	2.401234410062	1
23	2039	2.401234410062	2
23	2043	2.409458410062	1
23	2043	2.409458410062	0
23	2044	2.409458410062	1
23	2045	2.409458410062	2
23	2049	2.417682410062	1
23	2049	2.417682410062	0
23	2050	2.417682410062	1
23	2051	2.417682410062	2
23	2055	2.425906410062	1
23	2055	2.425906410062	0
23	2056	2.425906410062	1
23	2057	2.425906410062	2
23	2065	2.434130410062	1
23	2065	2.434130410062	0
23	2066	2.434130410062	1
23	2067	2.434130410062	2
23	2071	2.442354410062	1
23	2071	2.442354410062	0
23	2072	2.442354410062	1
23	2073	2.442354410062	2
23	2077	2.450578410062	1
23	2077	2.450578410062	0
23	2085	2.482298732409	1
23	2086	2.482298732409	2
23	2092	2.490522732409	1
23	2092	2.490522732409	0
23	2093	2.490522732409	1
23	2094	2.490522732409	2
23	2101	2.498746732409	1
23	2101	2.498746732409	0
23	2102	2.498746732409	1
23	2103	2.498746732409	2
23	2115	2.506970732409	1
23	2115	2.506970732409	0
23	2116	2.506970732409	1
23	2117	2.506970732409	2
23	2121	2.515194732409	1
23	2121	2.515194732409	0
23	2122	2.515194732409	1
23	2123	2.515194732409	2
23	2131	2.523418732409	1
23	2131	2.523418732409	0
23	2132	2.523418732409	1
23	2133	2.523418732409	2
23	2145	2.531642732409	1
23	2145	2.531642732409	0
23	2146	2.531642732409	1
23	2147	2.531642732409	2
23	2151	2.539866732409	1
23	2151	2.539866732409	0
23	2152	2.539866732409	1
23	2153	2.539866732409	2
23	2161	2.548090732409	1
23	2161	2.548090732409	0
23	2162	2.548090732409	1
23	2163	2.548090732409	2
23	2167	2.556314732409	1
23	2167	2.556314732409	0
23	2174	2.561669400952	1
23	2175	2.561669400952	2
23	2178	2.569893400952	1
23	2178	2.569893400952	0
23	2184	2.573567452467	1
23	2185	2.573567452467	2
23	2188	2.581791452467	1
23	2188	2.581791452467	0
23	2195	2.598297307358	1
23	2196	2.598297307358	2
23	2202	2.606521307358	1
23	2202	2.606521307358	0
23	2203	2.606521307358	1
23	2204	2.606521307358	2
23	2207	2.614745307358	1
23	2207	2.614745307358	0
23	2214	2.621328836518	1
23	2215	2.621328836518	2
23	2222	2.629552836518	1
23	2222	2.629552836518	0
23	2223	2.629552836518	1
23	2224	2.629552836518	2
23	2227	2.637776836518	1
23	2227	2.637776836518	0
23	2235	2.660431225778	1
23	2236	2.660431225778	2
23	2238	2.668655225778	1
23	2238	2.668655225778	0
23	2244	2.674388585179	1
23	2245	2.674388585179	2
23	2252	2.682612585179	1
23	2252	2.682612585179	0
23	2253	2.682612585179	1
23	2254	2.682612585179	2
23	2257	2.690836585179	1
23	2257	2.690836585179	0
23	2265	2.712634970432	1
23	2266	2.712634970432	2
23	2268	2.720858970432	1
23	2268	2.720858970432	0
23	2274	2.728385066348	1
23	2275	2.728385066348	2
23	2286	2.736609066348	1
23	2286	2.736609066348	0
23	2287	2.736609066348	1
23	2288	2.736609066348	2
23	2299	2.744833066348	1
23	2299	2.744833066348	0
23	2300	2.744833066348	1
23	2301	2.744833066348	2
23	2309	2.753057066348	1
23	2309	2.753057066348	0
23	2310	2.753057066348	1
23	2311	2.753057066348	2
23	2323	2.761281066348	1
23	2323	2.761281066348	0
23	2324	2.761281066348	1
23	2325	2.761281066348	2
23	2333	2.769505066348	1
23	2333	2.769505066348	0
23	2334	2.769505066348	1
23	2335	2.769505066348	2
23	2343	2.777729066348	1
23	2343	2.777729066348	0
23	2344	2.777729066348	1
23	2345	2.777729066348	2
23	2353	2.785953066348	1
23	2353	2.785953066348	0
23	2354	2.785953066348	1
23	2355	2.785953066348	2
23	2359	2.794177066348	1
23	2359	2.794177066348	0
23	2360	2.794177066348	1
23	2361	2.794177066348	2
23	2365	2.802401066348	1
23	2365	2.802401066348	0
23	2366	2.802401066348	1
23	2367	2.802401066348	2
23	2379	2.810625066348	1
23	2379	2.810625066348	0
23	2380	2.810625066348	1
23	2381	2.810625066348	2
23	2393	2.818849066348	1
23	2393	2.818849066348	0
23	2394	2.818849066348	1
23	2395	2.818849066348	2
23	2399	2.827073066348	1
23	2399	2.827073066348	0
23	2400	2.827073066348	1
23	2401	2.827073066348	2
23	2409	2.835297066348	1
23	2409	2.835297066348	0
23	2410	2.835297066348	1
23	2411	2.835297066348	2
23	2419	2.843521066348	1
23	2419	2.843521066348	0
23	2420	2.843521066348	1
23	2421	2.843521066348	2
23	2433	2.851745066348	1
23	2433	2.851745066348	0
23	2434	2.851745066348	1
23	2435	2.851745066348	2
23	2443	2.859969066348	1
23	2443	2.859969066348	0
23	2444	2.859969066348	1
23	2445	2.859969066348	2
23	2457	2.868193066348	1
23	2457	2.868193066348	0
23	2458	2.868193066348	1
23	2459	2.868193066348	2
23	2463	2.876417066348	1
23	2463	2.876417066348	0
23	2464	2.876417066348	1
23	2465	2.876417066348	2
23	2469	2.884641066348	1
23	2469	2.884641066348	0
23	2470	2.884641066348	1
23	2471	2.884641066348	2
23	2475	2.892865066348	1
23	2475	2.892865066348	0
23	2476	2.892865066348	1
23	2477	2.892865066348	2
23	2485	2.901089066348	1
23	2485	2.901089066348	0
23	2486	2.901089066348	1
23	2487	2.901089066348	2
23	2491	2.909313066348	1
23	2491	2.909313066348	0
23	2492	2.909313066348	1
23	2493	2.909313066348	2
23	2501	2.917537066348	1
23	2501	2.917537066348	0
23	2502	2.917537066348	1
23	2503	2.917537066348	2
23	2507	2.925761066348	1
23	2507	2.925761066348	0
23	2514	2.933378235419	1
23	2515	2.933378235419	2
23	2518	2.941602235419	1
23	2518	2.941602235419	0
23	2525	2.961464138947	1
23	2526	2.961464138947	2
23	2532	2.969688138947	1
23	2532	2.969688138947	0
23	2533	2.969688138947	1
23	2534	2.969688138947	2
23	2541	2.977912138947	1
23	2541	2.977912138947	0
23	2542	2.977912138947	1
23	2543	2.977912138947	2
23	2551	2.986136138947	1
23	2551	2.986136138947	0
23	2552	2.986136138947	1
23	2553	2.986136138947	2
23	2557	2.994360138947	1
23	2557	2.994360138947	0
23	2565	3.021910680853	1
23	2566	3.021910680853	2
23	2576	3.030134680853	1
23	2576	3.030134680853	0
23	2577	3.030134680853	1
23	2578	3.030134680853	2
23	2589	3.038358680853	1
23	2589	3.038358680853	0
23	2590	3.038358680853	1
23	2591	3.038358680853	2
23	2595	3.046582680853	1
23	2595	3.046582680853	0
23	2596	3.046582680853	1
23	2597	3.046582680853	2
23	2601	3.054806680853	1
23	2601	3.054806680853	0
23	2602	3.054806680853	1
23	2603	3.054806680853	2
23	2611	3.063030680853	1
23	2611	3.063030680853	0
23	2612	3.063030680853	1
23	2613	3.063030680853	2
23	2617	3.071254680853	1
23	2617	3.071254680853	0
23	2624	3.075961909561	1
23	2625	3.075961909561	2
23	2628	3.084185909561	1
23	2628	3.084185909561	0
23	2635	3.094415854135	1
23	2636	3.094415854135	2
23	2642	3.102639854135	1
23	2642	3.102639854135	0
23	2643	3.102639854135	1
23	2644	3.102639854135	2
23	2655	3.110863854135	1
23	2655	3.110863854135	0
23	2656	3.110863854135	1
23	2657	3.110863854135	2
23	2665	3.119087854135	1
23	2665	3.119087854135	0
23	2666	3.119087854135	1
23	2667	3.119087854135	2
23	2671	3.127311854135	1
23	2671	3.127311854135	0
23	2672	3.127311854135	1
23	2673	3.127311854135	2
23	2677	3.135535854135	1
23	2677	3.135535854135	0
23	2685	3.163280421768	1
23	2686	3.163280421768	2
23	2688	3.171504421768	1
23	2688	3.171504421768	0
23	2695	3.188379100639	1
23	2696	3.188379100639	2
23	2702	3.196603100639	1
23	2702	3.196603100639	0
23	2703	3.196603100639	1
23	2704	3.196603100639	2
23	2707	3.204827100639	1
23	2707	3.204827100639	0
23	2715	3.232438910766	1
23	2716	3.232438910766	2
23	2722	3.240662910766	1
23	2722	3.240662910766	0
23	2723	3.240662910766	1
23	2724	3.240662910766	2
23	2727	3.248886910766	1
23	2727	3.248886910766	0
23	2735	3.271388244226	1
23	2736	3.271388244226	2
23	2738	3.279612244226	1
23	2738	3.279612244226	0
23	2745	3.305427926547	1
23	2746	3.305427926547	2
23	2748	3.313651926547	1
23	2748	3.313651926547	0
23	2755	3.324693431704	1
23	2756	3.324693431704	2
23	2758	3.332917431704	1
23	2758	3.332917431704	0
23	2764	3.336638995424	1
23	2765	3.336638995424	2
23	2768	3.344862995424	1
23	2768	3.344862995424	0
23	2775	3.361524132981	1
23	2776	3.361524132981	2
23	2782	3.369748132981	1
23	2782	3.369748132981	0
23	2783	3.369748132981	1
23	2784	3.369748132981	2
23	2787	3.377972132981	1
23	2787	3.377972132981	0
23	2795	3.388366393003	1
23	2796	3.388366393003	2
23	2798	3.396590393003	1
23	2798	3.396590393003	0
23	2804	3.399910536122	1
23	2805	3.399910536122	2
23	2820	3.408134536122	1
23	2820	3.408134536122	0
23	2821	3.408134536122	1
23	2822	3.408134536122	2
23	2825	3.416358536122	1
23	2825	3.416358536122	0
23	2826	3.416358536122	1
23	2827	3.416358536122	2
23	2831	3.424582536122	1
23	2831	3.424582536122	0
23	2832	3.424582536122	1
23	2833	3.424582536122	2
23	2837	3.432806536122	1
23	2837	3.432806536122	0
23	2845	3.455208273796	1
23	2846	3.455208273796	2
23	2852	3.463432273796	1
23	2852	3.463432273796	0
23	2853	3.463432273796	1
23	2854	3.463432273796	2
23	2861	3.471656273796	1
23	2861	3.471656273796	0
23	2862	3.471656273796	1
23	2863	3.471656273796	2
23	2867	3.479880273796	1
23	2867	3.479880273796	0
23	2874	3.483515408701	1
23	2875	3.483515408701	2
23	2886	3.491739408701	1
23	2886	3.491739408701	0
23	2887	3.491739408701	1
23	2888	3.491739408701	2
23	2891	3.499963408701	1
23	2891	3.499963408701	0
23	2892	3.499963408701	1
23	2893	3.499963408701	2
23	2897	3.508187408701	1
23	2897	3.508187408701	0
23	2904	3.511519205519	1
23	2905	3.511519205519	2
23	2912	3.519743205519	1
23	2912	3.519743205519	0
23	2913	3.519743205519	1
23	2914	3.519743205519	2
23	2929	3.527967205519	1
23	2929	3.527967205519	0
23	2930	3.527967205519	1
23	2931	3.527967205519	2
23	2935	3.536191205519	1
23	2935	3.536191205519	0
23	2936	3.536191205519	1
23	2937	3.536191205519	2
23	2941	3.544415205519	1
23	2941	3.544415205519	0
23	2942	3.544415205519	1
23	2943	3.544415205519	2
23	2951	3.552639205519	1
23	2951	3.552639205519	0
23	2952	3.552639205519	1
23	2953	3.552639205519	2
23	2957	3.560863205519	1
23	2957	3.560863205519	0
23	2965	3.594011881851	1
23	2966	3.594011881851	2
23	2968	3.602235881851	1
23	2968	3.602235881851	0
23	2975	3.632891437454	1
23	2976	3.632891437454	2
23	2978	3.641115437454	1
23	2978	3.641115437454	0
23	2985	3.661336088421	1
23	2986	3.661336088421	2
23	2988	3.669560088421	1
23	2988	3.669560088421	0
23	2994	3.679185245473	1
23	2995	3.679185245473	2
23	3006	3.687409245473	1
23	3006	3.687409245473	0
23	3007	3.687409245473	1
23	3008	3.687409245473	2
23	3019	3.695633245473	1
23	3019	3.695633245473	0
23	3020	3.695633245473	1
23	3021	3.695633245473	2
23	3033	3.703857245473	1
23	3033	3.703857245473	0
23	3034	3.703857245473	1
23	3035	3.703857245473	2
23	3039	3.712081245473	1
23	3039	3.712081245473	0
23	3040	3.712081245473	1
23	3041	3.712081245473	2
23	3053	3.720305245473	1
23	3053	3.720305245473	0
23	3054	3.720305245473	1
23	3055	3.720305245473	2
23	3059	3.728529245473	1
23	3059	3.728529245473	0
23	3060	3.728529245473	1
23	3061	3.728529245473	2
23	3081	3.736753245473	1
23	3081	3.736753245473	0
23	3082	3.736753245473	1
23	3083	3.736753245473	2
23	3087	3.744977245473	1
23	3087	3.744977245473	0
23	3088	3.744977245473	1
23	3089	3.744977245473	2
23	3101	3.753201245473	1
23	3101	3.753201245473	0
23	3102	3.753201245473	1
23	3103	3.753201245473	2
23	3111	3.761425245473	1
23	3111	3.761425245473	0
23	3112	3.761425245473	1
23	3113	3.761425245473	2
23	3121	3.769649245473	1
23	3121	3.769649245473	0
23	3122	3.769649245473	1
23	3123	3.769649245473	2
23	3127	3.777873245473	1
23	3127	3.777873245473	0
23	3128	3.777873245473	1
23	3129	3.777873245473	2
23	3133	3.786097245473	1
23	3133	3.786097245473	0
23	3134	3.786097245473	1
23	3135	3.786097245473	2
23	3143	3.794321245473	1
23	3143	3.794321245473	0
23	3144	3.794321245473	1
23	3145	3.794321245473	2
23	3149	3.802545245473	1
23	3149	3.802545245473	0
23	3150	3.802545245473	1
23	3151	3.802545245473	2
23	3163	3.810769245473	1
23	3163	3.810769245473	0
23	3164	3.810769245473	1
23	3165	3.810769245473	2
23	3181	3.818993245473	1
23	3181	3.818993245473	0
23	3182	3.818993245473	1
23	3183	3.818993245473	2
23	3191	3.827217245473	1
23	3191	3.827217245473	0
23	3192	3.827217245473	1
23	3193	3.827217245473	2
23	3201	3.835441245473	1
23	3201	3.835441245473	0
23	3202	3.835441245473	1
23	3203	3.835441245473	2
23	3211	3.843665245473	1
23	3211	3.843665245473	0
23	3212	3.843665245473	1
23	3213	3.843665245473	2
23	3217	3.851889245473	1
23	3217	3.851889245473	0
23	3218	3.851889245473	1
23	3219	3.851889245473	2
23	3231	3.860113245473	1
23	3231	3.860113245473	0
23	3232	3.860113245473	1
23	3233	3.860113245473	2
23	3245	3.868337245473	1
23	3245	3.868337245473	0
23	3246	3.868337245473	1
23	3247	3.868337245473	2
23	3251	3.876561245473	1
23	3251	3.876561245473	0
23	3252	3.876561245473	1
23	3253	3.876561245473	2
23	3257	3.884785245473	1
23	3257	3.884785245473	0
23	3258	3.884785245473	1
23	3259	3.884785245473	2
23	3271	3.893009245473	1
23	3271	3.893009245473	0
23	3272	3.893009245473	1
23	3273	3.893009245473	2
23	3277	3.901233245473	1
23	3277	3.901233245473	0
23	3278	3.901233245473	1
23	3279	3.901233245473	2
23	3287	3.909457245473	1
23	3287	3.909457245473	0
23	3288	3.909457245473	1
23	3289	3.909457245473	2
23	3293	3.917681245473	1
23	3293	3.917681245473	0
23	3294	3.917681245473	1
23	3295	3.917681245473	2
23	3303	3.925905245473	1
23	3303	3.925905245473	0
23	3304	3.925905245473	1
23	3305	3.925905245473	2
23	3309	3.934129245473	1
23	3309	3.934129245473	0
23	3310	3.934129245473	1
23	3311	3.934129245473	2
23	3323	3.942353245473	1
23	3323	3.942353245473	0
23	3324	3.942353245473	1
23	3325	3.942353245473	2
23	3333	3.950577245473	1
23	3333	3.950577245473	0
23	3334	3.950577245473	1
23	3335	3.950577245473	2
23	3343	3.958801245473	1
23	3343	3.958801245473	0
23	3344	3.958801245473	1
23	3345	3.958801245473	2
23	3353	3.967025245473	1
23	3353	3.967025245473	0
23	3354	3.967025245473	1
23	3355	3.967025245473	2
23	3367	3.975249245473	1
23	3367	3.975249245473	0
23	3368	3.975249245473	1
23	3369	3.975249245473	2
23	3381	3.983473245473	1
23	3381	3.983473245473	0
23	3382	3.983473245473	1
23	3383	3.983473245473	2
23	3387	3.991697245473	1
23	3387	3.991697245473	0
23	3388	3.991697245473	1
23	3389	3.991697245473	2
23	3401	3.999921245473	1
23	3401	3.999921245473	0
23	3402	3.999921245473	1
23	3403	3.999921245473	2
23	3411	4.008145245473	1
23	3411	4.008145245473	0
23	3412	4.008145245473	1
23	3413	4.008145245473	2
23	3421	4.016369245473	1
23	3421	4.016369245473	0
23	3422	4.016369245473	1
23	3423	4.016369245473	2
23	3431	4.024593245473	1
23	3431	4.024593245473	0
23	3432	4.024593245473	1
23	3433	4.024593245473	2
23	3437	4.032817245473	1
23	3437	4.032817245473	0
23	3438	4.032817245473	1
23	3439	4.032817245473	2
38	0	0	0
44	0	0	0
44	0	0	2
45	0	0	1
