version 2
run Wireless06-0-20170307-13:10:08-5836
attr configname Wireless06
attr datetime 20170307-13:10:08
attr experiment Wireless06
attr inifile omnetpp.ini
attr iterationvars ""
attr iterationvars2 $repetition=0
attr measurement ""
attr network WirelessB
attr processid 5836
attr repetition 0
attr replication #0
attr resultdir results
attr runnumber 0
attr seedset 0
param *.configurator.config "xml(\"<config><interface hosts='**' address='10.0.0.x' netmask='255.255.255.0'/><autoroute metric='errorRate'/></config>\")"
param *.configurator.optimizeRoutes false
param *.host*.**.bitrate 1Mbps
param *.host*.forwarding true
param *.host*.networkLayer.arpType "\"GlobalARP\""
param *.host*.routingTable.netmaskRoutes "\"\""
param *.host*.wlan[*].macType "\"CsmaCaMac\""
param *.host*.wlan[*].radio.receiver.ignoreInterference false
param *.host*.wlan[*].radio.transmitter.communicationRange 250m
param *.host*.wlan[*].radio.transmitter.interferenceRange 500m
param *.host*.wlan[*].radioType "\"IdealRadio\""
param *.host*.wlan[*].typename "\"WirelessNic\""
param *.host*.wlan[0].radio.transmitter.communicationRange 500m
param *.host*.wlan[0].typename "\"IdealWirelessNic\""
param *.hostA.numUdpApps 1
param *.hostA.udpApp[0].destAddresses "\"hostB\""
param *.hostA.udpApp[0].destPort 5000
param *.hostA.udpApp[0].messageLength 1000B
param *.hostA.udpApp[0].packetName "\"UDPData\""
param *.hostA.udpApp[0].sendInterval exponential(12ms)
param *.hostA.udpApp[0].typename "\"UDPBasicApp\""
param *.hostA.wlan[*].radio.displayInterferenceRange true
param *.hostA.wlan[0].radio.displayCommunicationRange true
param *.hostB.numUdpApps 1
param *.hostB.udpApp[0].localPort 5000
param *.hostB.udpApp[0].typename "\"UDPSink\""
param *.hostR1.wlan[0].radio.displayCommunicationRange true
param *.visualizer.dataLinkVisualizer.packetNameFilter "\"UDPData\""
param *.visualizer.mediumVisualizer.displaySignals true
param *.visualizer.mediumVisualizer.signalPropagationUpdateInterval 100ns
param *.visualizer.networkRouteVisualizer.packetNameFilter "\"UDPData*\""
param *.visualizer.physicalLinkVisualizer.packetNameFilter "\"UDPData*\""
param *.visualizer.sceneVisualizer.descriptionFigure "\"title\""

vector 12  WirelessB.hostA.wlan[0].radio  radioMode:vector  ETV
attr interpolationmode  sample-hold
attr source  radioModeChanged
attr title  "Radio mode, vector"
vector 26  WirelessB.hostB.wlan[0].radio  radioMode:vector  ETV
attr interpolationmode  sample-hold
attr source  radioModeChanged
attr title  "Radio mode, vector"
vector 32  WirelessB.hostR1.wlan[0].radio  radioMode:vector  ETV
attr interpolationmode  sample-hold
attr source  radioModeChanged
attr title  "Radio mode, vector"
vector 38  WirelessB.hostR2.wlan[0].radio  radioMode:vector  ETV
attr interpolationmode  sample-hold
attr source  radioModeChanged
attr title  "Radio mode, vector"
vector 44  WirelessB.hostR3.wlan[0].radio  radioMode:vector  ETV
attr interpolationmode  sample-hold
attr source  radioModeChanged
attr title  "Radio mode, vector"
vector 13  WirelessB.hostA.wlan[0].radio  receptionState:vector  ETV
attr interpolationmode  sample-hold
attr source  receptionStateChanged
attr title  "Radio reception state, vector"
vector 27  WirelessB.hostB.wlan[0].radio  receptionState:vector  ETV
attr interpolationmode  sample-hold
attr source  receptionStateChanged
attr title  "Radio reception state, vector"
vector 33  WirelessB.hostR1.wlan[0].radio  receptionState:vector  ETV
attr interpolationmode  sample-hold
attr source  receptionStateChanged
attr title  "Radio reception state, vector"
vector 39  WirelessB.hostR2.wlan[0].radio  receptionState:vector  ETV
attr interpolationmode  sample-hold
attr source  receptionStateChanged
attr title  "Radio reception state, vector"
vector 45  WirelessB.hostR3.wlan[0].radio  receptionState:vector  ETV
attr interpolationmode  sample-hold
attr source  receptionStateChanged
attr title  "Radio reception state, vector"
vector 1  WirelessB.hostA.udpApp[0]  sentPk:vector(packetBytes)  ETV
attr interpolationmode  none
attr source  sentPk
attr title  "packets sent, vector(packetBytes)"
vector 4  WirelessB.hostA.udp  sentPk:vector(packetBytes)  ETV
attr interpolationmode  none
attr source  sentPk
attr title  "packets sent, vector(packetBytes)"
vector 14  WirelessB.hostA.wlan[0].radio  transmissionState:vector  ETV
attr interpolationmode  sample-hold
attr source  transmissionStateChanged
attr title  "Radio transmission state, vector"
vector 34  WirelessB.hostR1.wlan[0].radio  transmissionState:vector  ETV
attr interpolationmode  sample-hold
attr source  transmissionStateChanged
attr title  "Radio transmission state, vector"
vector 19  WirelessB.hostB.udp  rcvdPk:vector(packetBytes)  ETV
attr interpolationmode  none
attr source  rcvdPk
attr title  "packets received, vector(packetBytes)"
vector 20  WirelessB.hostB.udp  passedUpPk:vector(count)  ETV
attr interpolationmode  none
attr title  "packets passed up, vector(count)"
vector 15  WirelessB.hostB.udpApp[0]  rcvdPk:vector(packetBytes)  ETV
attr interpolationmode  none
attr source  rcvdPk
attr title  "packets received, vector(packetBytes)"
vector 16  WirelessB.hostB.udpApp[0]  endToEndDelay:vector  ETV
attr interpolationmode  none
attr source  messageAge(rcvdPk)
attr title  "end-to-end delay, vector"
attr unit  s
vector 17  WirelessB.hostB.udpApp[0]  rcvdPkSeqNo:vector  ETV
attr interpolationmode  none
attr source  appPkSeqNo(rcvdPk)
attr title  "received packet sequence number, vector"
vector 28  WirelessB.hostB.wlan[0].radio  transmissionState:vector  ETV
attr interpolationmode  sample-hold
attr source  transmissionStateChanged
attr title  "Radio transmission state, vector"
1	16	0.022315250545	1000
1	52	0.026135524235	1000
1	267	0.044962277646	1000
1	370	0.050948741754	1000
1	375	0.055887677709	1000
1	592	0.068423027809	1000
1	818	0.086492438913	1000
1	930	0.094192948985	1000
1	1054	0.103012522039	1000
1	1234	0.118315254466	1000
1	1452	0.135371630627	1000
1	1462	0.137846070011	1000
1	1689	0.153869552226	1000
1	1694	0.158570801954	1000
1	1698	0.160516439827	1000
1	1809	0.163533743012	1000
1	2135	0.191480703503	1000
1	2139	0.192735438212	1000
1	2679	0.234738002425	1000
1	2784	0.239455353113	1000
1	2894	0.251525805175	1000
1	3041	0.264219722135	1000
1	3878	0.328540926338	1000
1	4311	0.36438720504	1000
1	4315	0.365599622344	1000
1	4947	0.410587999859	1000
1	4956	0.412124681043	1000
1	4961	0.416338794116	1000
1	4965	0.417855457753	1000
1	5083	0.422447869139	1000
1	5088	0.423243437957	1000
1	5306	0.437393712282	1000
1	5416	0.446282819687	1000
1	5520	0.45657756738	1000
1	5525	0.461180289949	1000
1	5750	0.47439044087	1000
1	5847	0.478490290874	1000
1	5965	0.489087839378	1000
1	6186	0.510276732247	1000
1	6299	0.514053392177	1000
1	6736	0.55335511031	1000
1	6834	0.556384150225	1000
1	6844	0.563495638554	1000
1	7178	0.585977157112	1000
1	7280	0.592037382085	1000
1	7400	0.602483812001	1000
1	7588	0.616636407205	1000
1	8053	0.654142027497	1000
1	8057	0.658449154087	1000
1	8276	0.671400996471	1000
1	8380	0.678120529312	1000
1	8385	0.682371218899	1000
1	8504	0.69249788057	1000
1	8688	0.702746837398	1000
1	8720	0.709522163411	1000
1	9047	0.736745771323	1000
1	9379	0.756436542258	1000
1	9584	0.771467832557	1000
1	9817	0.795778738362	1000
1	9899	0.797364942877	1000
1	10160	0.817125572093	1000
1	10165	0.817985676705	1000
1	10345	0.8323309395	1000
1	10571	0.856484212334	1000
1	10575	0.856625611117	1000
1	10694	0.861980644963	1000
1	10698	0.864240184666	1000
1	10808	0.873073757866	1000
1	10914	0.875751428363	1000
1	11137	0.894692381028	1000
1	11554	0.926279007379	1000
1	11680	0.936610091019	1000
1	12110	0.96926627009	1000
1	12120	0.973752908041	1000
1	12224	0.979847289513	1000
1	12229	0.982319674095	1000
1	12672	1.016988581198	1000
1	12676	1.017705952753	1000
1	12786	1.024544723537	1000
1	13000	1.038847020781	1000
1	13004	1.039146881021	1000
1	13012	1.039982293074	1000
1	13123	1.05363275514	1000
1	13234	1.062862192753	1000
1	13988	1.118538023069	1000
1	14100	1.129188046211	1000
1	14203	1.141086097726	1000
1	14321	1.144920993584	1000
1	14326	1.147385166809	1000
1	14832	1.184023382844	1000
1	14863	1.186902465077	1000
1	14982	1.19566519706	1000
1	14987	1.198455497281	1000
1	15098	1.205089557729	1000
1	15201	1.212563509446	1000
1	15321	1.223168937318	1000
1	15325	1.224669328397	1000
1	15429	1.23341161451	1000
1	15648	1.248553366592	1000
1	15652	1.250982871756	1000
1	15737	1.252860581001	1000
1	15775	1.258134045687	1000
1	16202	1.291981677068	1000
1	16321	1.30162237822	1000
1	16875	1.34084433503	1000
1	16955	1.354145252081	1000
1	17073	1.358116170655	1000
1	17077	1.358909274783	1000
1	17181	1.366886967778	1000
1	17505	1.391985646649	1000
1	17934	1.427772054755	1000
1	17939	1.4319330944	1000
1	18270	1.454614314777	1000
1	18275	1.456538323911	1000
1	18895	1.504633719769	1000
1	18905	1.507160119227	1000
1	19024	1.515752663043	1000
1	19029	1.516988283408	1000
1	19339	1.540770967501	1000
1	19558	1.558620124553	1000
1	19637	1.564895736397	1000
1	19674	1.566601242534	1000
1	19679	1.567260131005	1000
1	19882	1.582777905311	1000
1	19891	1.584685103467	1000
1	19895	1.585679450742	1000
1	19900	1.586805945309	1000
1	20121	1.600184594372	1000
1	20235	1.609964814343	1000
1	20447	1.62554616197	1000
1	20452	1.62622976036	1000
1	20461	1.630537296181	1000
1	20566	1.634184954892	1000
1	20676	1.647981851545	1000
1	20794	1.651982691606	1000
1	20799	1.654380958061	1000
1	21019	1.673025904085	1000
1	21237	1.691124486865	1000
1	21347	1.696741764304	1000
1	21352	1.700564770479	1000
1	21456	1.706125450809	1000
1	21574	1.713516482214	1000
1	21792	1.732817496403	1000
1	21898	1.737214911905	1000
1	22335	1.77567261786	1000
1	22446	1.784891657962	1000
1	22542	1.788793708408	1000
1	22553	1.794778016402	1000
1	23090	1.832371970277	1000
1	23099	1.839735220794	1000
1	23340	1.855190764495	1000
1	23532	1.869245928834	1000
1	23745	1.886211328788	1000
1	23750	1.888311269367	1000
1	23977	1.907409942841	1000
1	24089	1.918137959673	1000
1	24199	1.925470650408	1000
1	24309	1.935759871639	1000
1	24734	1.964502029112	1000
1	24739	1.965279217425	1000
1	24853	1.971899660776	1000
1	25076	1.994588410629	1000
1	25186	1.999857334456	1000
1	25190	2.000054893864	1000
1	25195	2.00251312107	1000
1	25297	2.008668244972	1000
1	25302	2.00992743794	1000
1	25737	2.044798473184	1000
1	25902	2.056235943643	1000
1	25933	2.056424693128	1000
1	25965	2.057270716508	1000
1	25975	2.060753997489	1000
1	25979	2.063753407289	1000
1	26082	2.06725676015	1000
1	26086	2.067402071091	1000
1	26091	2.068874651179	1000
1	26202	2.080437763534	1000
1	26956	2.136121123485	1000
1	26961	2.14020397012	1000
1	27075	2.143519632435	1000
1	27084	2.146908992979	1000
1	27289	2.160063303711	1000
1	27413	2.169771060053	1000
1	27519	2.1844846466	1000
1	27631	2.189850325431	1000
1	28066	2.220928239177	1000
1	28686	2.271724428733	1000
1	29143	2.307904047999	1000
1	29476	2.333520476733	1000
1	29683	2.350097985691	1000
1	29693	2.357256584694	1000
1	29812	2.361613530776	1000
1	29816	2.364871170373	1000
1	29921	2.373246420959	1000
1	30140	2.385307808742	1000
1	30353	2.401980110825	1000
1	31122	2.464201663901	1000
1	31226	2.469992566483	1000
1	31666	2.511220047193	1000
1	31777	2.517485382846	1000
1	31882	2.521289111405	1000
1	31893	2.527453338764	1000
1	31996	2.53088016581	1000
1	32001	2.535339554868	1000
1	32121	2.540941926991	1000
1	32332	2.557606054277	1000
1	32606	2.58139980524	1000
1	32670	2.588489827885	1000
1	32773	2.59363112023	1000
1	32993	2.607323640241	1000
1	33003	2.610075446301	1000
1	33008	2.615092546208	1000
1	33219	2.628625671411	1000
1	33299	2.632612798894	1000
1	33348	2.63298122017	1000
1	33352	2.633076204328	1000
1	33363	2.638671768645	1000
1	33442	2.647745763618	1000
1	33446	2.648870828269	1000
1	33564	2.655120174647	1000
1	33670	2.660153926529	1000
1	33680	2.664080451105	1000
1	33684	2.666905321503	1000
1	33781	2.668380872306	1000
1	33906	2.682640822229	1000
1	34332	2.718319322303	1000
1	34882	2.757807108266	1000
1	35074	2.776582986874	1000
1	35178	2.785389426478	1000
1	35182	2.786532840272	1000
1	35295	2.789634351257	1000
1	35405	2.801349855533	1000
1	35524	2.812923852674	1000
1	36185	2.86022135689	1000
1	36669	2.901633478442	1000
1	36700	2.905914073474	1000
1	36704	2.908012996595	1000
1	37031	2.934103791481	1000
1	37256	2.947089014095	1000
1	37369	2.961396041	1000
1	37401	2.961881099932	1000
1	37471	2.962622893716	1000
1	37808	2.991219712994	1000
1	37920	3.000252948818	1000
1	38862	3.074603870243	1000
1	38950	3.082396798965	1000
1	38990	3.086405699962	1000
1	39095	3.095076926812	1000
1	39213	3.102394072886	1000
1	39751	3.144671888981	1000
1	39757	3.150747056586	1000
1	40813	3.23754867802	1000
1	40919	3.238324881282	1000
1	40929	3.245118435902	1000
1	41048	3.253976076813	1000
1	41588	3.29223068688	1000
1	42019	3.325185709323	1000
1	42124	3.339045403726	1000
1	42470	3.362816867279	1000
1	42520	3.366134719488	1000
1	42773	3.389692198963	1000
1	42777	3.391169524422	1000
1	42888	3.39849857452	1000
1	42999	3.4051122299	1000
1	43003	3.406609680168	1000
1	43103	3.410406808862	1000
1	43110	3.416532959773	1000
1	43336	3.429887325512	1000
1	43459	3.442120067769	1000
1	43537	3.448902607387	1000
1	43541	3.449774000084	1000
1	43871	3.47051311256	1000
1	43875	3.471917953032	1000
1	43974	3.478148997731	1000
1	43984	3.482795367338	1000
1	43988	3.483160263263	1000
1	44207	3.499199084271	1000
1	44426	3.513776152774	1000
1	44430	3.515084535137	1000
1	44765	3.539308500256	1000
1	44869	3.548221185252	1000
1	44874	3.550758239352	1000
1	44878	3.550989936614	1000
1	44997	3.559751400857	1000
1	45107	3.565357239575	1000
1	45111	3.566364760055	1000
1	45116	3.567434813042	1000
1	45120	3.570437852407	1000
1	45124	3.571702366095	1000
1	45234	3.575397631642	1000
1	45238	3.576211902179	1000
1	45552	3.599490243294	1000
1	45562	3.606804953464	1000
1	45679	3.608802835791	1000
1	45757	3.615611253227	1000
1	45795	3.62077031966	1000
1	46013	3.639020830552	1000
1	46017	3.639373389919	1000
1	46341	3.666498195288	1000
1	47079	3.718938192305	1000
1	47203	3.732676829699	1000
1	47315	3.741594457551	1000
1	47319	3.743684488204	1000
1	47423	3.744259734599	1000
1	47428	3.744306148477	1000
1	47438	3.746666796741	1000
1	47542	3.758054632902	1000
1	47866	3.783688960018	1000
1	47983	3.787975981561	1000
1	48306	3.820028281243	1000
1	48425	3.825609310168	1000
1	48429	3.829024512376	1000
1	48534	3.833621329181	1000
1	48652	3.840982345974	1000
1	48657	3.845897871895	1000
1	48984	3.871409038734	1000
1	49511	3.912037929569	1000
1	49910	3.942767456546	1000
1	50163	3.965080335415	1000
1	50487	3.987287363174	1000
1	50492	3.991639656808	1000
1	50496	3.992579854421	1000
1	50600	3.999213446423	1000
1	50719	4.00929144844	1000
1	50924	4.020180403479	1000
1	51256	4.052538821726	1000
1	51367	4.060464508457	1000
1	51594	4.072714497486	1000
1	51813	4.092603231734	1000
1	51918	4.097808426008	1000
1	52138	4.115442825798	1000
1	52147	4.119528564096	1000
1	52465	4.144424392685	1000
1	52583	4.150614973355	1000
1	52688	4.159596544174	1000
1	52692	4.159603097614	1000
1	52698	4.166252107352	1000
1	52702	4.167040065574	1000
1	52813	4.169842230046	1000
1	52818	4.172753177553	1000
1	53165	4.196204882813	1000
1	53170	4.197679872271	1000
1	53362	4.213298377572	1000
1	53466	4.221131301019	1000
1	53470	4.221738599531	1000
1	53475	4.225897403641	1000
1	53701	4.240962811699	1000
1	53705	4.242323668365	1000
1	54018	4.262725155516	1000
1	54028	4.269051180992	1000
1	54141	4.274662669919	1000
1	54475	4.301047853395	1000
1	54897	4.331282935302	1000
1	54906	4.336619556761	1000
1	55349	4.369817318778	1000
1	55891	4.409443526207	1000
1	55896	4.411905960027	1000
1	56007	4.421034559249	1000
1	56058	4.425601650041	1000
1	56116	4.432707747689	1000
1	56235	4.438013549752	1000
1	56452	4.453803320533	1000
1	56555	4.464148060061	1000
1	56782	4.483199611512	1000
1	57000	4.499176463717	1000
1	57103	4.506162636355	1000
1	57214	4.513301151426	1000
1	57335	4.5249491404	1000
1	57661	4.549138949972	1000
1	57880	4.569120806701	1000
1	57884	4.569855439886	1000
1	58210	4.594907723044	1000
1	58214	4.59722159891	1000
1	58319	4.598699799377	1000
1	58328	4.599402505557	1000
1	58862	4.646641779115	1000
1	59079	4.663636100881	1000
1	59191	4.672377068586	1000
1	59526	4.700148367369	1000
1	59530	4.700620210368	1000
1	59796	4.718419692748	1000
1	59853	4.718946164883	1000
1	59862	4.720206930878	1000
1	59962	4.72795268813	1000
1	59971	4.732201753731	1000
1	59975	4.734165186693	1000
1	60091	4.738975701257	1000
1	60096	4.740790934598	1000
1	60100	4.743886277349	1000
1	60204	4.744742321426	1000
1	60215	4.750777270426	1000
1	60318	4.755244651824	1000
1	60323	4.760157923576	1000
1	60562	4.77577127523	1000
1	61068	4.819483791486	1000
1	61187	4.82834594193	1000
1	61506	4.854773163275	1000
1	61617	4.862144526618	1000
1	61734	4.866710883139	1000
1	61946	4.882415225056	1000
1	62159	4.898343100726	1000
1	62276	4.906813324667	1000
1	62288	4.909450009613	1000
1	62392	4.918636255299	1000
1	62397	4.922988115455	1000
1	62623	4.933718515338	1000
1	62736	4.949164220608	1000
1	63164	4.979822790085	1000
1	63390	4.99752300986	1000
1	63394	5.000652647735	1000
1	63505	5.009136265704	1000
1	63610	5.010369650088	1000
1	63942	5.04381711368	1000
1	63946	5.043938489787	1000
1	64057	5.05168967323	1000
1	64061	5.052229333245	1000
1	64380	5.077624739421	1000
1	64923	5.114489803104	1000
1	64933	5.120854299082	1000
1	65036	5.128921702422	1000
1	65161	5.139581111648	1000
1	65265	5.142808757988	1000
1	65377	5.155055987804	1000
1	65594	5.173131859751	1000
1	65697	5.17559179944	1000
1	65701	5.177254061545	1000
1	65813	5.184905642176	1000
1	66252	5.219462567552	1000
1	66257	5.223162138167	1000
1	66261	5.224796017047	1000
1	66470	5.233749757011	1000
1	66583	5.245574439946	1000
1	66588	5.245869305695	1000
1	66698	5.252617174795	1000
1	66918	5.275645143891	1000
1	67036	5.279350093106	1000
1	67140	5.287284129315	1000
1	67362	5.308112150709	1000
1	67588	5.326910268371	1000
1	67798	5.341557514833	1000
1	67802	5.341694555872	1000
1	67913	5.35028471324	1000
1	67917	5.350913825466	1000
1	68460	5.391321165212	1000
1	68465	5.393789194652	1000
1	68685	5.407901911379	1000
1	69231	5.452213996034	1000
1	69665	5.493272436988	1000
1	70093	5.522613887088	1000
1	70427	5.548570045477	1000
1	70890	5.589525004629	1000
1	70972	5.593234416911	1000
1	71590	5.643718136354	1000
1	71688	5.650329320049	1000
1	71697	5.65247430869	1000
1	71814	5.659461612664	1000
1	71928	5.668320914211	1000
1	72249	5.696724019889	1000
1	72792	5.736091462038	1000
1	72801	5.737735339537	1000
1	72912	5.748236918564	1000
1	72916	5.750898322356	1000
1	73448	5.788414746085	1000
1	73453	5.79321423057	1000
1	73681	5.812043080737	1000
1	73791	5.815043372164	1000
1	73795	5.816340359851	1000
1	73894	5.82241093102	1000
1	74012	5.830881901106	1000
1	74122	5.845588777129	1000
1	74339	5.857649811803	1000
1	74567	5.876978412428	1000
1	74766	5.898018476877	1000
1	74986	5.914703661951	1000
1	75311	5.941489983262	1000
1	75430	5.948352432442	1000
1	75849	5.979191035114	1000
1	76465	6.028703901619	1000
1	76821	6.059850478891	1000
1	76932	6.065346911423	1000
1	77053	6.077928818033	1000
1	77379	6.10212514906	1000
1	77484	6.107660502615	1000
1	77593	6.117524564303	1000
1	77598	6.121579083226	1000
1	77602	6.121814935512	1000
1	77733	6.12792930076	1000
1	78141	6.162135327278	1000
1	78253	6.171686772506	1000
1	78257	6.172932584543	1000
1	78469	6.192310506077	1000
1	78777	6.21208639371	1000
1	78786	6.214319739284	1000
1	78791	6.216247102579	1000
1	79010	6.234054472183	1000
1	79655	6.28242940927	1000
1	79660	6.285161569096	1000
1	79779	6.295186717066	1000
1	79783	6.296514358138	1000
1	79887	6.298001522142	1000
1	79891	6.298057510555	1000
1	79901	6.304695085208	1000
1	80114	6.317789856207	1000
1	80118	6.318566736143	1000
1	80122	6.322477434528	1000
1	80233	6.324703456532	1000
1	80237	6.326671064193	1000
1	80456	6.346316624511	1000
1	80568	6.354927887989	1000
1	80679	6.360355640277	1000
1	80792	6.370079745891	1000
1	81213	6.407417755583	1000
1	81438	6.421617881244	1000
1	81655	6.438653301254	1000
1	82086	6.475878868144	1000
1	82299	6.488092411587	1000
1	82514	6.505735209926	1000
1	82728	6.522276209869	1000
1	82973	6.541637476742	1000
1	83052	6.555129287889	1000
1	83056	6.556424544787	1000
1	83176	6.560571285628	1000
1	83180	6.562377613479	1000
1	83289	6.567194029035	1000
1	83294	6.57202250757	1000
1	83397	6.576656216675	1000
1	83616	6.59904011373	1000
1	83941	6.620376602185	1000
1	83946	6.621644041261	1000
1	84268	6.645863253682	1000
1	84373	6.659443390495	1000
1	84594	6.671090463293	1000
1	84818	6.688682596414	1000
1	84823	6.694737195551	1000
1	84928	6.696936135128	1000
1	85038	6.711404972587	1000
1	85579	6.752186424983	1000
1	85693	6.757210923665	1000
1	85909	6.78134197893	1000
1	86020	6.781889118241	1000
1	86032	6.786256045791	1000
1	86142	6.796053048524	1000
1	86252	6.80219193001	1000
1	86359	6.808339441775	1000
1	86467	6.817341506824	1000
1	86472	6.82113952513	1000
1	86585	6.824721355276	1000
1	86695	6.839297272563	1000
1	86902	6.853510741755	1000
1	86958	6.859132801189	1000
1	87027	6.865541527341	1000
1	87137	6.869751409222	1000
1	87142	6.875030022488	1000
1	87463	6.894977891133	1000
1	87473	6.900546855028	1000
1	87690	6.918006413818	1000
1	87909	6.935497839397	1000
1	88013	6.944903965341	1000
1	88540	6.982626560344	1000
1	88961	7.01722236138	1000
1	89073	7.025933473255	1000
1	89078	7.029780825143	1000
1	89303	7.044302344873	1000
1	89406	7.05135653023	1000
1	89525	7.060676126885	1000
1	89530	7.065750940275	1000
1	89627	7.067030042117	1000
1	89637	7.069239166213	1000
1	89749	7.07898593479	1000
1	90184	7.117046171474	1000
1	90510	7.143240688044	1000
1	90627	7.145937427228	1000
1	91279	7.201650045048	1000
1	91494	7.215087583539	1000
1	91499	7.218694363684	1000
1	91503	7.219437863812	1000
1	91600	7.222264412571	1000
1	91610	7.2248411061	1000
1	91721	7.238721106997	1000
1	91836	7.24001018691	1000
1	91846	7.244577252467	1000
1	91951	7.248835947549	1000
1	92167	7.265497266801	1000
1	92601	7.300129627916	1000
1	92684	7.308290195295	1000
1	92723	7.315707789766	1000
1	93133	7.348537875915	1000
1	93243	7.354608204914	1000
1	93248	7.358631956629	1000
1	93333	7.359949575308	1000
1	93479	7.374764854822	1000
1	93697	7.393636278673	1000
1	94017	7.41919885886	1000
1	94129	7.428172229001	1000
1	94568	7.461474648626	1000
1	94892	7.481883637179	1000
1	94896	7.484508242357	1000
1	95102	7.497867875481	1000
1	95222	7.510221502098	1000
1	95549	7.537625220531	1000
1	95553	7.539441229582	1000
1	95773	7.554416004185	1000
1	95885	7.558549383857	1000
1	96321	7.596181488235	1000
1	96326	7.601810285629	1000
1	96438	7.607050393724	1000
1	96659	7.619920891686	1000
1	97206	7.669011005548	1000
1	97309	7.676115288774	1000
1	97363	7.679124919962	1000
1	97425	7.687298244986	1000
1	97650	7.700501338139	1000
1	98184	7.747728807128	1000
1	98486	7.765466085017	1000
1	98516	7.770045782393	1000
1	99081	7.816559998622	1000
1	99490	7.845224040165	1000
1	99495	7.84655648863	1000
1	100147	7.895153912664	1000
1	100371	7.914459096435	1000
1	100557	7.928978414146	1000
1	100595	7.936849612408	1000
1	100700	7.941099677312	1000
1	100820	7.951690390146	1000
1	101139	7.974362833706	1000
1	101145	7.980785412041	1000
1	101256	7.982422108229	1000
1	101260	7.983161523038	1000
1	101266	7.988335926018	1000
1	101700	8.018605431913	1000
1	101813	8.027275857841	1000
1	101817	8.032263875099	1000
1	101872	8.033116631697	1000
1	101934	8.036235996498	1000
1	102044	8.043090167123	1000
1	102180	8.058468689159	1000
1	102257	8.063255696017	1000
1	102262	8.063756500638	1000
1	102266	8.067334489775	1000
1	102493	8.083510686283	1000
1	102704	8.101090552741	1000
1	103358	8.147455587417	1000
1	103543	8.163636506434	1000
1	103597	8.168685653163	1000
1	103601	8.169933455905	1000
1	103786	8.18650226257	1000
1	104213	8.216141198941	1000
1	104626	8.250530761519	1000
1	104772	8.263160005157	1000
1	104971	8.277003108839	1000
1	104981	8.282996246991	1000
1	105183	8.293686992747	1000
1	105188	8.294347180033	1000
1	105197	8.296752357186	1000
1	105202	8.298180791317	1000
1	105206	8.300758947799	1000
1	105325	8.305865880586	1000
1	105434	8.317779446758	1000
1	105760	8.344278919582	1000
1	106051	8.362341954358	1000
1	106055	8.36234636337	1000
1	106087	8.366184407966	1000
1	106205	8.373625344149	1000
1	106210	8.374913297077	1000
1	106315	8.388327210335	1000
1	106426	8.390786624671	1000
1	106538	8.399593879455	1000
1	106765	8.418896934544	1000
1	106769	8.419871361669	1000
1	106973	8.439484466067	1000
1	107076	8.441478493938	1000
1	107196	8.450495823942	1000
1	107296	8.458121639627	1000
1	107305	8.461419498298	1000
1	107525	8.47870294214	1000
1	107643	8.486013523642	1000
1	107741	8.492733919442	1000
1	107751	8.499207377092	1000
1	107870	8.505346682505	1000
1	107874	8.50651606805	1000
1	107925	8.5087021327	1000
1	108204	8.531563834872	1000
1	108636	8.562812416085	1000
1	108742	8.569584353354	1000
1	108968	8.590741052825	1000
1	108972	8.594100112494	1000
1	109083	8.599069847114	1000
1	109294	8.618562965681	1000
1	109933	8.667405683675	1000
1	110051	8.677417930376	1000
1	110268	8.693062297443	1000
1	110479	8.715802952932	1000
1	110598	8.724496949936	1000
1	110701	8.727652900758	1000
1	111135	8.762552365946	1000
1	111140	8.764571127818	1000
1	111144	8.767311176141	1000
1	111254	8.770847890259	1000
1	111259	8.773622776353	1000
1	111478	8.792788523295	1000
1	111591	8.794262148287	1000
1	111701	8.810561550518	1000
1	111820	8.814609558181	1000
1	111824	8.816884564769	1000
1	111935	8.824767582793	1000
1	112041	8.829425528061	1000
1	112045	8.829723781441	1000
1	112055	8.835622591835	1000
1	112059	8.83680880526	1000
1	112169	8.844973437537	1000
1	112495	8.865446287935	1000
1	112500	8.868707560271	1000
1	112712	8.885929670794	1000
1	112716	8.88729174101	1000
1	112720	8.887400956474	1000
1	112828	8.889955178445	1000
1	112952	8.901446251199	1000
1	113166	8.916030985821	1000
1	113175	8.920530621273	1000
1	113494	8.94641418982	1000
1	113605	8.950245893119	1000
1	113616	8.952417619567	1000
1	113728	8.965575551045	1000
1	114261	9.009322323689	1000
1	114379	9.018350506039	1000
1	114598	9.035448446558	1000
1	114702	9.042232729076	1000
1	114706	9.043156915366	1000
1	115032	9.065487952852	1000
1	115037	9.066392397324	1000
1	115264	9.083855979409	1000
1	115268	9.086826434389	1000
1	115577	9.105499355517	1000
1	115584	9.106229397608	1000
1	115817	9.126220337097	1000
1	116035	9.142794696106	1000
1	116040	9.146704292778	1000
1	116144	9.156205327845	1000
1	116692	9.197586453058	1000
1	116803	9.207417736279	1000
1	117013	9.222056206227	1000
1	117554	9.26017731032	1000
1	118204	9.314392101752	1000
1	118552	9.339330276428	1000
1	118557	9.343847475125	1000
1	118635	9.352466802538	1000
1	118963	9.37621743903	1000
1	119073	9.382966674142	1000
1	119078	9.385456292343	1000
1	119297	9.399813444127	1000
1	119302	9.402520699526	1000
1	119520	9.416719897005	1000
1	119640	9.428009556221	1000
1	119743	9.435778793812	1000
1	119798	9.440431862693	1000
1	119865	9.444453838775	1000
1	120293	9.476386641173	1000
1	120298	9.478101288091	1000
1	120634	9.508095678511	1000
1	120736	9.510918313621	1000
1	120849	9.518183582099	1000
1	121290	9.555413812586	1000
1	121295	9.558004762822	1000
1	121419	9.564400283747	1000
1	121423	9.564945818981	1000
1	121427	9.566837476268	1000
1	121506	9.577838498972	1000
1	121832	9.59963061161	1000
1	122273	9.632829512898	1000
1	122384	9.645987138795	1000
1	122595	9.657200003839	1000
1	122599	9.658635566095	1000
1	122712	9.668444048013	1000
1	122937	9.687875315523	1000
1	123248	9.708837722777	1000
1	123353	9.718404320668	1000
1	123689	9.749158369938	1000
1	123693	9.750007771316	1000
1	123797	9.758345430422	1000
1	123915	9.762374039403	1000
1	123920	9.766909396223	1000
1	124089	9.777279753699	1000
1	124126	9.778947624843	1000
1	124130	9.779674931498	1000
1	124241	9.789964200318	1000
1	124245	9.790075692554	1000
1	124673	9.821607679648	1000
1	124682	9.828751231358	1000
1	124779	9.829272255842	1000
1	124790	9.83504073618	1000
1	125122	9.861049274548	1000
1	125233	9.86838561911	1000
1	125237	9.869132969344	1000
1	125349	9.880579720232	1000
1	125452	9.882675674558	1000
1	125566	9.89394712939	1000
1	125570	9.894021802267	1000
1	125574	9.894133736049	1000
1	125686	9.903247549547	1000
1	125898	9.91565151428	1000
1	126023	9.926115612641	1000
1	126349	9.951244975886	1000
1	126354	9.954334966515	1000
1	126358	9.955939560434	1000
1	126898	9.995900519166	1000
1	126902	9.998022410404	1000
1	127455	10.03773786654	1000
1	127459	10.037795453056	1000
1	127537	10.047478396616	1000
1	127750	10.062841065774	1000
1	128191	10.096955580963	1000
1	128202	10.101982313507	1000
1	128280	10.107633662752	1000
1	128412	10.119138357364	1000
1	128416	10.121420568578	1000
1	128718	10.146393044968	1000
1	128938	10.165194274167	1000
1	129147	10.177583586738	1000
1	129266	10.185340673292	1000
1	129271	10.188801190389	1000
1	129375	10.199948931541	1000
1	129597	10.210281588451	1000
1	129607	10.216757017781	1000
1	129718	10.223435673317	1000
1	129722	10.225128863887	1000
1	129726	10.225608863615	1000
1	129730	10.225915530889	1000
1	129839	10.22971757113	1000
1	130041	10.245263756823	1000
1	130047	10.245694016646	1000
1	130052	10.248085099428	1000
1	130129	10.253044305914	1000
1	130375	10.276030659428	1000
1	130379	10.276797305603	1000
1	130722	10.297462101048	1000
1	130726	10.297481251135	1000
1	130734	10.299367416282	1000
1	130920	10.317488555673	1000
1	131033	10.32672886563	1000
1	131151	10.332782705921	1000
1	131155	10.333568296573	1000
1	131260	10.339896990507	1000
1	131269	10.343170336088	1000
1	131703	10.377722289753	1000
1	132257	10.421881052843	1000
1	132309	10.425401271644	1000
1	132449	10.434521335578	1000
1	132458	10.440524509667	1000
1	132563	10.44617510546	1000
1	132676	10.459405720666	1000
1	132795	10.467657223584	1000
1	132900	10.469522713437	1000
1	133017	10.484517487658	1000
1	133128	10.493285989368	1000
1	133226	10.495447078352	1000
1	133236	10.500031056464	1000
1	133355	10.510894821624	1000
1	133574	10.525048315848	1000
1	133578	10.526778460904	1000
1	133902	10.549594246073	1000
1	134433	10.590978156297	1000
1	134438	10.596037476345	1000
1	134992	10.631584293167	1000
1	135186	10.653146251211	1000
1	135298	10.664460632068	1000
1	135839	10.708595069945	1000
1	135925	10.709133311587	1000
1	135962	10.712382261393	1000
1	135966	10.714815067414	1000
1	136176	10.731682452171	1000
1	136504	10.752290883631	1000
1	136514	10.75827683692	1000
1	136518	10.758633331553	1000
1	136622	10.765483535099	1000
1	136739	10.771795242894	1000
1	137383	10.826500502121	1000
1	137489	10.829440198082	1000
1	137607	10.844891604769	1000
1	137714	10.847216134115	1000
1	137939	10.867583903059	1000
1	138057	10.875064998788	1000
1	138167	10.884340857137	1000
1	138172	10.887396116808	1000
1	138493	10.90998205291	1000
1	138604	10.916689616587	1000
1	138608	10.916777308395	1000
1	138612	10.917185045142	1000
1	138725	10.927892418084	1000
1	138730	10.931317059594	1000
1	138849	10.935224746937	1000
1	139064	10.950890068574	1000
1	139285	10.972167435002	1000
1	139389	10.978730536188	1000
1	139503	10.991738658637	1000
1	139615	11.001114191159	1000
1	140371	11.053636258018	1000
1	140376	11.053869290848	1000
1	140492	11.063993364411	1000
1	140704	11.086681345457	1000
1	140816	11.088141774188	1000
1	140932	11.100134716895	1000
1	141036	11.110689913103	1000
1	141583	11.149808200241	1000
1	141588	11.151258062688	1000
1	141592	11.152550043784	1000
1	141812	11.169523176259	1000
1	141923	11.180632692098	1000
1	142027	11.189733056831	1000
1	142470	11.22368557332	1000
1	142582	11.232696971852	1000
1	142586	11.233316168519	1000
1	142696	11.239871739816	1000
1	142807	11.243598660173	1000
1	142919	11.255332401156	1000
1	142923	11.255460107118	1000
1	143455	11.295664315844	1000
1	143784	11.324612558714	1000
1	144117	11.351995781642	1000
1	144221	11.355884530595	1000
1	144335	11.363346608593	1000
1	144445	11.376606370427	1000
1	144449	11.376672489982	1000
1	144574	11.380552162327	1000
1	144761	11.398545701114	1000
1	144885	11.412472448201	1000
1	145098	11.428901758649	1000
1	145208	11.433586581789	1000
1	145213	11.436279396203	1000
1	145535	11.458542717844	1000
1	145659	11.467934499669	1000
1	145763	11.476656335667	1000
1	145990	11.494474058455	1000
1	145995	11.498474813607	1000
1	146104	11.502138105071	1000
1	146208	11.512330581575	1000
1	146213	11.514657700884	1000
1	146325	11.518594397508	1000
1	146335	11.52586338136	1000
1	146446	11.532979157318	1000
1	146872	11.563884219759	1000
1	146877	11.568067279482	1000
1	147083	11.580263416826	1000
1	147088	11.580909379591	1000
1	147422	11.609822257208	1000
1	147634	11.625285021875	1000
1	147745	11.631875871385	1000
1	147972	11.652565435762	1000
1	148184	11.672225803402	1000
1	148288	11.673825388859	1000
1	148629	11.701152296119	1000
1	148741	11.71278990952	1000
1	148845	11.722767711535	1000
1	149493	11.770314504822	1000
1	149497	11.771750564165	1000
1	150155	11.82756929364	1000
1	150258	11.831428403134	1000
1	150263	11.83463589815	1000
1	150373	11.83957036088	1000
1	151023	11.895497537211	1000
1	151136	11.897668366457	1000
1	151252	11.909367772948	1000
1	151676	11.942259507582	1000
1	151680	11.943127960113	1000
1	151685	11.946209780034	1000
1	151803	11.954082354616	1000
1	152130	11.979198210674	1000
1	152240	11.986369233848	1000
1	152244	11.990507310632	1000
1	152564	12.008478510132	1000
1	152682	12.018749641211	1000
1	152687	12.021920505658	1000
1	152789	12.027153274473	1000
1	152794	12.032529614895	1000
1	152798	12.033804672811	1000
1	152916	12.03915655166	1000
1	153022	12.043412501249	1000
1	153454	12.078103384175	1000
1	153555	12.085597820591	1000
1	153565	12.088790717364	1000
1	153570	12.090626675197	1000
1	153681	12.096015941266	1000
1	154136	12.131335572777	1000
1	154328	12.147987589326	1000
1	154333	12.15046024809	1000
1	154338	12.152965213028	1000
1	154463	12.159834247411	1000
1	154547	12.168807623365	1000
1	154809	12.19013542829	1000
1	154983	12.201408951176	1000
1	155093	12.210497436764	1000
1	155097	12.211159314022	1000
1	155202	12.221785209116	1000
1	155429	12.23967789385	1000
1	155433	12.240224260984	1000
1	155535	12.243641914018	1000
1	155540	12.246549564103	1000
1	155651	12.251519731346	1000
1	156079	12.290850480787	1000
1	156083	12.291610174954	1000
1	156189	12.299065926666	1000
1	156475	12.319013079379	1000
1	156715	12.336851967369	1000
1	156725	12.341068076466	1000
1	156842	12.347385345289	1000
1	156954	12.36022350779	1000
1	157064	12.368184361387	1000
1	157384	12.38884473393	1000
1	157499	12.398684793505	1000
1	157503	12.399833290146	1000
1	157615	12.41084291856	1000
1	157955	12.435104314379	1000
1	158251	12.460179374851	1000
1	158354	12.466570027092	1000
1	158358	12.466890952462	1000
1	158798	12.503357083653	1000
1	159341	12.549600172548	1000
1	159345	12.549899242974	1000
1	159554	12.561503056263	1000
1	159640	12.567691274092	1000
1	159645	12.567897525053	1000
1	159789	12.577723323724	1000
1	160008	12.596676537388	1000
1	160218	12.612934518295	1000
1	160330	12.623979112106	1000
1	160334	12.62450992926	1000
1	160553	12.643868901641	1000
1	160665	12.651525177222	1000
1	160885	12.666987829134	1000
1	161220	12.689859613943	1000
1	161654	12.727106383161	1000
1	161872	12.744074453416	1000
1	161876	12.747000412716	1000
1	162201	12.770749643925	1000
1	162312	12.77908403196	1000
1	162416	12.783128980803	1000
1	162426	12.785670232399	1000
1	162747	12.813534338463	1000
1	163186	12.847112339855	1000
1	163296	12.858229248811	1000
1	163424	12.868667741287	1000
1	164207	12.928925459454	1000
1	164766	12.972239012631	1000
1	164804	12.977467885855	1000
1	165443	13.026409682456	1000
1	165555	13.034044810228	1000
1	165675	13.048500637368	1000
1	165786	13.051912206057	1000
1	165895	13.060246231749	1000
1	165901	13.061373246242	1000
1	166005	13.06793297566	1000
1	166018	13.074184240756	1000
1	166128	13.081454369375	1000
1	166554	13.116099018066	1000
1	166558	13.118247244815	1000
1	166690	13.123713679439	1000
1	166774	13.130343986298	1000
1	166986	13.145568926145	1000
1	167212	13.165011755259	1000
1	167290	13.171151876427	1000
1	167320	13.172459657451	1000
1	167439	13.181244782217	1000
1	167763	13.207706160838	1000
1	167768	13.209725330367	1000
1	167999	13.228105983564	1000
1	168077	13.240127044208	1000
1	168403	13.257938282614	1000
1	168627	13.281718768183	1000
1	169168	13.321987603296	1000
1	169172	13.323154792832	1000
1	169274	13.33043631901	1000
1	169392	13.337572941033	1000
1	169496	13.348918032841	1000
1	169816	13.369313574409	1000
1	169935	13.377598729402	1000
1	170045	13.393368325374	1000
1	170130	13.394087572764	1000
1	170181	13.401207269486	1000
1	170373	13.41418120299	1000
1	170378	13.416252245988	1000
1	170487	13.422574218983	1000
1	170593	13.436601375097	1000
1	170919	13.455633126434	1000
1	171041	13.464978779589	1000
1	171225	13.481066592536	1000
1	171695	13.520964225993	1000
1	171798	13.525461642582	1000
1	172125	13.557051687391	1000
1	172237	13.561642157732	1000
1	172355	13.568170618316	1000
1	172468	13.580997108348	1000
1	172684	13.599446220597	1000
1	172895	13.618030087125	1000
1	173215	13.63693218666	1000
1	173327	13.647344486976	1000
1	173432	13.660774865086	1000
1	173543	13.664856870786	1000
1	173878	13.694869948293	1000
1	174089	13.71130384366	1000
1	174201	13.721583040601	1000
1	174426	13.738365503502	1000
1	174529	13.743307794308	1000
1	174756	13.761258879138	1000
1	174880	13.774385300228	1000
1	175071	13.785031961948	1000
1	175075	13.786790212996	1000
1	175288	13.800701688946	1000
1	175395	13.810173717741	1000
1	175401	13.811833232321	1000
1	175405	13.812745407215	1000
1	175410	13.814753900309	1000
1	175523	13.81812619505	1000
1	175639	13.829500353532	1000
1	175751	13.837562278373	1000
1	175862	13.844804386313	1000
1	175969	13.852461320594	1000
1	175977	13.854646507876	1000
1	176102	13.86375711441	1000
1	176106	13.866105156324	1000
1	176184	13.873609273183	1000
1	176189	13.876060760463	1000
1	176414	13.893025517132	1000
1	176518	13.900603855885	1000
1	176522	13.902094394378	1000
1	176634	13.90889461242	1000
1	176638	13.910085659833	1000
1	176756	13.91447371361	1000
1	176868	13.9269413521	1000
1	176872	13.929046596897	1000
1	177303	13.957228264212	1000
1	177307	13.958827078348	1000
1	177417	13.966260434109	1000
1	177736	13.997635558494	1000
1	178176	14.025792430829	1000
1	178181	14.028446278379	1000
1	178292	14.0395332592	1000
1	178402	14.042800804141	1000
1	178407	14.046938595088	1000
1	178412	14.049953098523	1000
1	178738	14.07536853326	1000
1	178848	14.079205019539	1000
1	179065	14.096901077208	1000
1	179170	14.106242797459	1000
1	179284	14.111551825239	1000
1	179293	14.117080284066	1000
1	179486	14.129092960746	1000
1	179608	14.141658969105	1000
1	179613	14.142833134462	1000
1	179825	14.159646624126	1000
1	179829	14.160965633824	1000
1	179947	14.165343767655	1000
1	179951	14.165610935624	1000
1	180163	14.181505457768	1000
1	180169	14.188342388592	1000
1	180281	14.192258947138	1000
1	180285	14.194732961388	1000
1	180929	14.241595984611	1000
1	181259	14.269421908773	1000
1	181264	14.274323003874	1000
1	181371	14.275654058407	1000
1	181494	14.285278089558	1000
1	181705	14.305741071335	1000
1	181824	14.316521289873	1000
1	181935	14.3212845469	1000
1	182037	14.327984988535	1000
1	182256	14.345670248707	1000
1	182376	14.358528749164	1000
1	182381	14.360088402238	1000
1	182806	14.392307987667	1000
1	182925	14.3996508818	1000
1	183136	14.414158945412	1000
1	183337	14.429891231901	1000
1	183454	14.443970752985	1000
1	183572	14.448084467874	1000
1	183577	14.453228656724	1000
1	183681	14.454598104439	1000
1	183691	14.461721599661	1000
1	183910	14.478463723535	1000
1	184345	14.510537306738	1000
1	184450	14.515995822014	1000
1	184460	14.519848572336	1000
1	184785	14.543563041253	1000
1	184998	14.564499442055	1000
1	185116	14.569541519753	1000
1	185120	14.569994319339	1000
1	185125	14.570914131691	1000
1	185229	14.581279978266	1000
1	185442	14.593304950317	1000
1	185662	14.610477533532	1000
1	186111	14.652390330413	1000
1	186215	14.656403132977	1000
1	186440	14.67157144725	1000
1	186544	14.678486042692	1000
1	186869	14.711434989542	1000
1	187196	14.73018222699	1000
1	187528	14.759285539629	1000
1	187532	14.760771259305	1000
1	187536	14.76418823919	1000
1	187746	14.780458425183	1000
1	187750	14.78076482584	1000
1	188066	14.804136362705	1000
1	188604	14.844999042665	1000
1	188722	14.854978225672	1000
1	188727	14.8569803278	1000
1	188838	14.86403483222	1000
1	189486	14.919018727214	1000
1	189705	14.936120961111	1000
1	190022	14.956049979409	1000
1	190443	14.994259586877	1000
1	190884	15.032578557098	1000
1	191097	15.045684194517	1000
1	191425	15.070711175487	1000
1	191537	15.079234937151	1000
1	191542	15.079700054516	1000
1	191546	15.081349011715	1000
1	191550	15.082037902271	1000
1	191982	15.110284536801	1000
1	191994	15.115734923152	1000
1	192092	15.119473441722	1000
1	192102	15.123427272743	1000
1	192214	15.131079361978	1000
1	192325	15.138308403552	1000
1	192437	15.147669425141	1000
1	192551	15.154110683003	1000
1	192560	15.157314130072	1000
1	192768	15.171707126459	1000
1	192986	15.189572524977	1000
1	193091	15.197309702331	1000
1	193311	15.222721061663	1000
1	193525	15.232200467905	1000
1	193649	15.246544604601	1000
1	193865	15.258463258867	1000
1	194085	15.278804039658	1000
1	194089	15.279529055946	1000
1	194094	15.282209339104	1000
1	194305	15.293913127952	1000
1	194310	15.298330564869	1000
1	194429	15.305064767332	1000
1	194433	15.305937855431	1000
1	194538	15.31427384556	1000
1	194650	15.325628146169	1000
1	195212	15.363151867966	1000
1	195216	15.36507395019	1000
1	195221	15.366148923231	1000
1	195412	15.386055129223	1000
1	195624	15.400138829958	1000
1	195628	15.402080253679	1000
1	195820	15.413110610528	1000
1	195859	15.417428608672	1000
1	196072	15.430997738759	1000
1	196289	15.452509336387	1000
1	196408	15.462359668943	1000
1	196512	15.4694461639	1000
1	196624	15.477875960084	1000
1	196736	15.483850475661	1000
1	197161	15.516999822293	1000
1	197171	15.523417575727	1000
1	197282	15.528777674849	1000
1	197502	15.544771209191	1000
1	197726	15.563133616604	1000
1	197830	15.56949244152	1000
1	197835	15.575793749663	1000
1	197947	15.576909110841	1000
1	197958	15.584177973424	1000
1	198068	15.587676325118	1000
1	198073	15.593468107418	1000
1	198177	15.593947052731	1000
1	198188	15.600577449814	1000
1	198507	15.624312007521	1000
1	198512	15.627731073816	1000
1	198623	15.632752477053	1000
1	198627	15.633435846754	1000
1	198844	15.647141356065	1000
1	199071	15.669443358129	1000
1	199711	15.715369439322	1000
1	199716	15.718264511431	1000
1	199935	15.737413173799	1000
1	200152	15.751622750797	1000
1	200265	15.762948936508	1000
1	200376	15.765066077201	1000
1	200495	15.779903659158	1000
1	200813	15.804506648369	1000
1	200931	15.815370710867	1000
1	201034	15.81920975485	1000
1	201254	15.836222396091	1000
1	201367	15.846278833016	1000
1	201472	15.851166232964	1000
1	201477	15.851757496798	1000
1	201485	15.85370456781	1000
1	201490	15.855854150777	1000
1	201609	15.86157579768	1000
1	201828	15.882931657388	1000
1	202046	15.896261453375	1000
1	202051	15.89785643505	1000
1	202055	15.898865807076	1000
1	202272	15.918162880322	1000
1	202591	15.943811381725	1000
1	202923	15.967307154624	1000
1	203021	15.971609374781	1000
1	203030	15.974959281091	1000
1	203034	15.977306092834	1000
1	203146	15.983697845436	1000
1	203266	15.995354023499	1000
1	203470	16.007830988325	1000
1	203474	16.009003230652	1000
1	203479	16.011549284766	1000
1	203583	16.022483457627	1000
1	204011	16.049400278786	1000
1	204136	16.060266536049	1000
1	204240	16.06803407969	1000
1	204347	16.075482354671	1000
1	204357	16.082296712505	1000
1	204475	16.085648712388	1000
1	204480	16.089518733331	1000
1	204585	16.092805346321	1000
1	204714	16.10795199014	1000
1	204718	16.109101319737	1000
1	204897	16.119125091083	1000
1	204908	16.124342510311	1000
1	205020	16.127644359521	1000
1	205352	16.159324990555	1000
1	205566	16.171389440692	1000
1	205805	16.195490999148	1000
1	205997	16.208166495626	1000
1	206001	16.210993948352	1000
1	206213	16.225441172638	1000
1	206300	16.232277521488	1000
1	206329	16.233908542375	1000
1	206385	16.240702056881	1000
1	206454	16.247169141658	1000
1	206566	16.256024709342	1000
1	206784	16.2732875715	1000
1	206888	16.279829664416	1000
1	206892	16.283731270584	1000
1	207010	16.28600065997	1000
1	207015	16.288210954566	1000
1	207120	16.293847936887	1000
1	207129	16.297476191329	1000
1	207133	16.300610223667	1000
1	207237	16.306693566259	1000
1	207645	16.335720748045	1000
1	207785	16.345340506582	1000
1	207794	16.345827662042	1000
1	207798	16.345994856475	1000
1	208245	16.387110843075	1000
1	208644	16.420342332793	1000
1	209299	16.470192788046	1000
1	209303	16.472865604242	1000
1	209596	16.496811900512	1000
1	209600	16.499269386538	1000
1	210141	16.536692880175	1000
1	210254	16.543702581552	1000
1	210471	16.567320066376	1000
1	210590	16.575285383647	1000
1	210802	16.591240240563	1000
1	210806	16.592503341073	1000
1	210919	16.597927616672	1000
1	211005	16.60372205136	1000
1	211358	16.634065876974	1000
1	211470	16.641069414151	1000
1	211475	16.645100727839	1000
1	211800	16.665295074194	1000
1	212127	16.696299372926	1000
1	212131	16.697535981758	1000
1	212252	16.705883456058	1000
1	212469	16.717451617324	1000
1	212687	16.735002526966	1000
1	212792	16.748749205165	1000
1	213335	16.788673735384	1000
1	213339	16.788796531392	1000
1	213343	16.792056270484	1000
1	213462	16.798250094641	1000
1	213786	16.824362068575	1000
1	213896	16.835792059703	1000
1	214114	16.849897106861	1000
1	214434	16.877116616294	1000
1	214655	16.888939058147	1000
1	214665	16.894415295005	1000
1	214669	16.895618183428	1000
1	215207	16.936438070877	1000
1	215846	16.98820808374	1000
1	215850	16.988566609478	1000
1	215854	16.989843959797	1000
1	215966	16.996394079792	1000
1	216051	17.000152182919	1000
1	216089	17.00452647345	1000
1	216406	17.029251737413	1000
1	216632	17.044895730048	1000
1	217066	17.08182312633	1000
1	217070	17.083037645679	1000
1	217173	17.088637917064	1000
1	217178	17.092309334776	1000
1	217403	17.104882174652	1000
1	217408	17.110128232941	1000
1	217518	17.119604497013	1000
1	217841	17.139577332046	1000
1	217845	17.140667991535	1000
1	217949	17.148316391337	1000
1	218070	17.159534884174	1000
1	218173	17.163183524753	1000
1	218283	17.175005217011	1000
1	218511	17.193291793323	1000
1	218721	17.213307855218	1000
1	219271	17.257987723689	1000
1	219375	17.264499410095	1000
1	219486	17.268870335091	1000
1	219706	17.288395723895	1000
1	219710	17.28872405851	1000
1	219816	17.29320232734	1000
1	220149	17.322063227313	1000
1	220484	17.351601394725	1000
1	220581	17.353212887266	1000
1	220700	17.367555852057	1000
1	220811	17.373129540091	1000
1	220923	17.381833972538	1000
1	221036	17.391851158853	1000
1	221167	17.397593685525	1000
1	221172	17.400018721274	1000
1	221219	17.404574616763	1000
1	221371	17.422404157109	1000
1	221474	17.426476874961	1000
1	221478	17.430769539115	1000
1	221813	17.45693323747	1000
1	221863	17.45696653507	1000
1	222029	17.473884155072	1000
1	222033	17.474189317042	1000
1	222358	17.495774612411	1000
1	222752	17.52615664688	1000
1	223112	17.557622460701	1000
1	223424	17.578528610968	1000
1	223433	17.581773166154	1000
1	223865	17.612642585551	1000
1	224088	17.630203056254	1000
1	224628	17.674827717129	1000
1	224632	17.67965803892	1000
1	224750	17.68282428247	1000
1	224755	17.685548402236	1000
1	224963	17.700805778939	1000
1	224968	17.703276685012	1000
1	224972	17.703733902218	1000
1	225085	17.71415537928	1000
1	225203	17.716828661677	1000
1	225307	17.72618531839	1000
1	225418	17.733955233478	1000
1	225422	17.734523180943	1000
1	225535	17.747405812749	1000
1	225653	17.750644927851	1000
1	225872	17.767882486898	1000
1	225985	17.77855604155	1000
1	225989	17.778703469748	1000
1	225993	17.780717957408	1000
1	226202	17.794558037916	1000
1	226316	17.801280289346	1000
1	226431	17.811301243654	1000
1	226615	17.82648934603	1000
1	226761	17.836393357009	1000
1	226767	17.843762057494	1000
1	226871	17.850355996271	1000
1	226876	17.852420027087	1000
1	226989	17.853509744747	1000
1	227209	17.87647234611	1000
1	227478	17.895841916224	1000
1	227654	17.91144066147	1000
1	227759	17.913700362551	1000
1	227768	17.915529985217	1000
1	227772	17.917267491109	1000
1	227992	17.936286486495	1000
1	228095	17.940206423253	1000
1	228100	17.945203296914	1000
1	228327	17.959506550851	1000
1	228539	17.977471197707	1000
1	228543	17.978803961691	1000
1	228662	17.988163717522	1000
1	228766	17.992687171199	1000
1	228992	18.010970632873	1000
1	229179	18.025314019569	1000
1	229648	18.063552635301	1000
1	229653	18.064809868585	1000
1	229938	18.08566726449	1000
1	229974	18.087507496839	1000
1	230294	18.112618895452	1000
1	230303	18.116073960838	1000
1	230523	18.134443840224	1000
1	230527	18.134653130575	1000
1	230646	18.144694471165	1000
1	230743	18.146302634982	1000
1	230752	18.149601434942	1000
1	230865	18.15452815583	1000
1	230875	18.156010378957	1000
1	231301	18.195602823027	1000
1	231626	18.216051591077	1000
1	231853	18.234185681898	1000
1	231963	18.244207547977	1000
1	231967	18.245393530445	1000
1	232070	18.251084004795	1000
1	232075	18.25440956249	1000
1	232079	18.257099655712	1000
1	232197	18.265497423197	1000
1	232729	18.305377466048	1000
1	233049	18.326662404159	1000
1	233187	18.342310474597	1000
1	233191	18.342409269884	1000
1	233289	18.345413605289	1000
1	233294	18.347394094336	1000
1	233379	18.35771162348	1000
1	233483	18.364868972628	1000
1	233488	18.369193664766	1000
1	233715	18.383092957206	1000
1	233819	18.388460314529	1000
1	234358	18.431823902317	1000
1	234584	18.449787170662	1000
1	234589	18.454817191665	1000
1	234699	18.462641749989	1000
1	235124	18.490062086902	1000
1	235456	18.51823272429	1000
1	235561	18.526675739132	1000
1	235566	18.528551757411	1000
1	235698	18.536620067572	1000
1	235884	18.554726019192	1000
1	235995	18.560696773261	1000
1	236222	18.581954423837	1000
1	236333	18.589587081551	1000
1	236337	18.589941633664	1000
1	236341	18.591411458551	1000
1	236443	18.597071050846	1000
1	236448	18.598174959136	1000
1	236567	18.608215641796	1000
1	236772	18.620034820322	1000
1	236783	18.623461917643	1000
1	236787	18.624589201734	1000
1	237221	18.660584270922	1000
1	237441	18.675446246567	1000
1	237573	18.685779263889	1000
1	237658	18.690674062409	1000
1	237771	18.70465546837	1000
1	237983	18.718050845234	1000
1	238103	18.729675159125	1000
1	238315	18.746688436882	1000
1	238433	18.752847370545	1000
1	238438	18.757508701424	1000
1	238535	18.758187737122	1000
1	238546	18.764130769217	1000
1	238550	18.765307206053	1000
1	238661	18.768295746352	1000
1	238666	18.771392762764	1000
1	238784	18.776566251435	1000
1	238970	18.792345164513	1000
1	239108	18.803150166458	1000
1	239112	18.803867884	1000
1	239117	18.806007247707	1000
1	239235	18.81254386648	1000
1	239347	18.82485381566	1000
1	239579	18.843771114956	1000
1	239631	18.844169741206	1000
1	239636	18.844407405225	1000
1	239889	18.864743795101	1000
1	239894	18.868637045909	1000
1	239944	18.870382227185	1000
1	240317	18.902344083292	1000
1	240752	18.936446286191	1000
1	241620	19.001927492609	1000
1	241631	19.006107745946	1000
1	241635	19.008748401	1000
1	241738	19.017754460621	1000
1	241956	19.034002182262	1000
1	242075	19.040876931418	1000
1	242178	19.050538280009	1000
1	242290	19.059728302622	1000
1	242724	19.087352429748	1000
1	242735	19.091162545537	1000
1	243170	19.128791195364	1000
1	243491	19.148367282796	1000
1	243610	19.165126964825	1000
1	243928	19.186782139278	1000
1	244686	19.24894820507	1000
1	245553	19.314373336366	1000
1	245663	19.321496007086	1000
1	245667	19.322137193792	1000
1	245773	19.336769225129	1000
1	245999	19.350298555565	1000
1	246003	19.352866528057	1000
1	246113	19.359396689709	1000
1	246547	19.394134102076	1000
1	246651	19.401913892685	1000
1	246771	19.412386553693	1000
1	247198	19.447522453253	1000
1	247524	19.468374974748	1000
1	247529	19.471589740789	1000
1	247533	19.473119449247	1000
1	247761	19.49137729336	1000
1	247946	19.500338308284	1000
1	247979	19.500989500511	1000
1	247983	19.500990369983	1000
1	248308	19.526465768507	1000
1	248319	19.5332345507	1000
1	248422	19.537444776318	1000
1	248427	19.541892231216	1000
1	248644	19.553144557004	1000
1	248859	19.570183060701	1000
1	249196	19.59588941048	1000
1	249409	19.61594879532	1000
1	249520	19.627937346256	1000
1	249739	19.639675689872	1000
1	249958	19.662116648252	1000
1	250183	19.673495726167	1000
1	250188	19.677761780407	1000
1	250192	19.678551583304	1000
1	250303	19.685462039883	1000
1	250407	19.696361970644	1000
1	250518	19.698861147678	1000
1	250522	19.700998216923	1000
1	250822	19.723192565361	1000
1	250853	19.724781083712	1000
1	250858	19.729905946563	1000
1	250970	19.734718004245	1000
1	251082	19.745741509406	1000
1	251308	19.763311846968	1000
1	251519	19.776586493614	1000
1	251525	19.78353303847	1000
1	251643	19.787972270555	1000
1	251647	19.789641626199	1000
1	251863	19.802966174385	1000
1	252080	19.819479641363	1000
1	252086	19.819665342026	1000
1	252307	19.843370676165	1000
1	252405	19.844833469462	1000
1	252415	19.849707154767	1000
1	252527	19.858420919152	1000
1	252647	19.866721186528	1000
1	252750	19.872407251038	1000
1	252863	19.87907194551	1000
1	252874	19.883736204716	1000
1	253513	19.934257057722	1000
1	253518	19.934729718662	1000
1	253522	19.936224481578	1000
1	253745	19.948101306479	1000
1	253754	19.952111178048	1000
1	253858	19.960173726158	1000
1	253990	19.969628527781	1000
1	253994	19.971614706632	1000
1	254079	19.980948803801	1000
1	254508	20.014571424532	1000
1	254728	20.032293659676	1000
1	254732	20.032748712115	1000
1	255497	20.09295699625	1000
1	255600	20.101732864246	1000
1	255711	20.104051172061	1000
1	255716	20.109449045108	1000
1	255829	20.119250137381	1000
1	255882	20.119744327335	1000
1	255954	20.128331570901	1000
1	256031	20.129068357295	1000
1	256061	20.129833595208	1000
1	256067	20.135676358221	1000
1	256178	20.138997271873	1000
1	256183	20.145221142917	1000
1	256296	20.146753833065	1000
1	256307	20.153602304035	1000
1	256610	20.17486599423	1000
1	256730	20.184896861924	1000
1	256848	20.190060944587	1000
1	256858	20.195779351886	1000
1	256862	20.197233861857	1000
1	257040	20.207135173737	1000
1	257050	20.20974019694	1000
1	257055	20.212526440947	1000
1	257511	20.247871365767	1000
1	257804	20.272731791559	1000
1	258244	20.304604276802	1000
1	258785	20.350633563848	1000
1	258886	20.354978838603	1000
1	258892	20.355959692075	1000
1	259005	20.36775241388	1000
1	259090	20.370964589687	1000
1	259121	20.371193573447	1000
1	259240	20.387289238598	1000
1	259349	20.391010720591	1000
1	259354	20.392969973023	1000
1	259677	20.417870178192	1000
1	259681	20.421374660221	1000
1	260002	20.445647763173	1000
1	260006	20.446278809355	1000
1	260340	20.472832310054	1000
1	260879	20.511815190527	1000
1	260990	20.519544446505	1000
1	261315	20.547516453795	1000
1	261319	20.548028971562	1000
1	261424	20.559221958442	1000
1	261650	20.572340351032	1000
1	261654	20.572818085372	1000
1	261658	20.574003923851	1000
1	261761	20.583869659515	1000
1	261873	20.586565835699	1000
1	261884	20.59423149967	1000
1	261888	20.594368318	1000
1	261990	20.596213418024	1000
1	262750	20.655451067071	1000
1	262760	20.661921392752	1000
1	262869	20.666519278827	1000
1	262976	20.673286508258	1000
1	262985	20.676201698539	1000
1	263096	20.684530156053	1000
1	263100	20.684647648481	1000
1	263210	20.696021870048	1000
1	263414	20.707139460791	1000
1	263532	20.715350061053	1000
1	263541	20.717666926386	1000
1	263546	20.719653365416	1000
1	263871	20.747905701274	1000
1	264051	20.757209076348	1000
1	264195	20.766959202322	1000
1	264204	20.768159277392	1000
1	264209	20.769907870015	1000
1	264741	20.813659069337	1000
1	264854	20.817981355847	1000
1	265072	20.840958459947	1000
1	265289	20.852975662062	1000
1	265616	20.878543458579	1000
1	265620	20.878729390435	1000
1	265850	20.901962652685	1000
1	265973	20.910835857716	1000
1	266166	20.926203061223	1000
1	266491	20.953745336949	1000
1	266709	20.968281806739	1000
1	266713	20.972492729786	1000
1	266923	20.984010727892	1000
1	266928	20.988853668839	1000
1	267039	20.997424603132	1000
1	267152	21.000073268108	1000
1	267162	21.005921068528	1000
1	267270	21.009097505044	1000
1	267277	21.015261470352	1000
1	267381	21.016739286585	1000
1	267392	21.020680868561	1000
1	267503	21.030676463988	1000
1	268043	21.070101259057	1000
1	268248	21.086027307567	1000
1	268257	21.088068467885	1000
1	268376	21.096927413733	1000
1	268481	21.108975554529	1000
1	268813	21.13204243143	1000
1	269030	21.147052714945	1000
1	269141	21.155448672667	1000
1	269146	21.160178603462	1000
1	269258	21.170661274741	1000
1	269368	21.173884563614	1000
1	269373	21.176764546489	1000
1	269618	21.196399367098	1000
1	269914	21.216480199094	1000
1	270017	21.225213643931	1000
1	270022	21.227317694266	1000
1	270451	21.25713083934	1000
1	270670	21.274522071804	1000
1	271100	21.312319369459	1000
1	271318	21.329238914063	1000
1	271322	21.330933606939	1000
1	271425	21.334851275734	1000
1	271545	21.3456090768	1000
1	271870	21.374217956464	1000
1	272391	21.414603483659	1000
1	272698	21.436688886989	1000
1	272703	21.437030097528	1000
1	272813	21.445262725036	1000
1	272940	21.45735306582	1000
1	272944	21.461582819848	1000
1	273267	21.483921217846	1000
1	273478	21.499371260897	1000
1	273698	21.518731443986	1000
1	273816	21.523499411335	1000
1	273820	21.524212170069	1000
1	273933	21.535710113686	1000
1	273937	21.53885391248	1000
1	274159	21.548046348219	1000
1	274354	21.571174448569	1000
1	274576	21.583141961764	1000
1	274585	21.588100014657	1000
1	274688	21.596008903897	1000
1	274692	21.59787820444	1000
1	274806	21.600538132211	1000
1	274815	21.608103740919	1000
1	275136	21.630507016075	1000
1	275467	21.655117826711	1000
1	275572	21.664487109082	1000
1	276121	21.705737865595	1000
1	276665	21.754825431682	1000
1	276669	21.754871919394	1000
1	277008	21.777065820571	1000
1	277086	21.785402232667	1000
1	277171	21.78993442431	1000
1	277209	21.791608396569	1000
1	277313	21.801068450639	1000
1	277421	21.808174173105	1000
1	277651	21.826932461359	1000
1	277656	21.829454159084	1000
1	278082	21.861459344897	1000
1	278309	21.878048717877	1000
1	278387	21.884534783164	1000
1	278418	21.890822260585	1000
1	278638	21.907155889534	1000
1	278749	21.915532160311	1000
1	278868	21.924780825955	1000
1	279401	21.967736348471	1000
1	279512	21.974118497659	1000
1	279517	21.976636084096	1000
1	279743	21.992923663142	1000
1	279949	22.006153032052	1000
1	279958	22.008599022213	1000
1	280071	22.019171412447	1000
1	280288	22.035476631686	1000
1	280499	22.048071081319	1000
1	280618	22.059538718307	1000
1	280622	22.059704571741	1000
1	280734	22.067374844677	1000
1	280847	22.079246656015	1000
1	280959	22.087572794902	1000
1	281293	22.113058771259	1000
1	281297	22.113157126455	1000
1	281301	22.114686147167	1000
1	281405	22.11931929031	1000
1	281517	22.129447037963	1000
1	281624	22.135374491875	1000
1	281743	22.151138030746	1000
1	281861	22.159520175265	1000
1	281965	22.166224152561	1000
1	282084	22.173351326592	1000
1	282189	22.186032757581	1000
1	282292	22.186580998544	1000
1	282634	22.216972131901	1000
1	282745	22.226368633245	1000
1	282749	22.227673946005	1000
1	283065	22.24939752299	1000
1	283177	22.260740682018	1000
1	283181	22.261053178562	1000
1	283401	22.273181005264	1000
1	283410	22.275255662319	1000
1	283415	22.277111362635	1000
1	283634	22.294315161702	1000
1	283745	22.301424266958	1000
1	283956	22.317913622519	1000
1	283960	22.318379958043	1000
1	284215	22.341568645847	1000
1	284298	22.346303679688	1000
1	284302	22.346591431278	1000
1	284506	22.362265221249	1000
1	284612	22.375274175665	1000
1	284722	22.378902179775	1000
1	284949	22.398328193073	1000
1	285380	22.43497349153	1000
1	285599	22.448356384883	1000
1	286037	22.48749062635	1000
1	286148	22.491431761499	1000
1	286261	22.505000542946	1000
1	286374	22.512380295537	1000
1	286706	22.53900959546	1000
1	286924	22.552227314599	1000
1	287136	22.569545462525	1000
1	287141	22.572600141909	1000
1	287260	22.581859610207	1000
1	287480	22.596474503889	1000
1	287591	22.606679994279	1000
1	287804	22.619587527407	1000
1	287914	22.631125182284	1000
1	288134	22.650371561192	1000
1	288252	22.656631064222	1000
1	288582	22.687240563507	1000
1	288691	22.690317823117	1000
1	288696	22.696466544698	1000
1	288926	22.713297602259	1000
1	289192	22.732029914873	1000
1	289196	22.732072117341	1000
1	289233	22.734675893177	1000
1	289456	22.757214462909	1000
1	289668	22.769305394166	1000
1	289673	22.771418819691	1000
1	290007	22.794463675194	1000
1	290334	22.821193206956	1000
1	290460	22.832514150008	1000
1	290646	22.851540588097	1000
1	290700	22.854245583715	1000
1	290770	22.861577227202	1000
1	290774	22.862631428465	1000
1	290884	22.865965896924	1000
1	290995	22.87566881949	1000
1	291098	22.880396041164	1000
1	291216	22.890575399471	1000
1	291643	22.925242225277	1000
1	291648	22.930339322939	1000
1	292029	22.958382707022	1000
1	292095	22.961831226751	1000
1	292099	22.963490533901	1000
1	292317	22.977518020647	1000
1	292322	22.983835316605	1000
1	292645	23.002739702599	1000
1	292750	23.012148431773	1000
1	292754	23.012644756713	1000
1	292983	23.034845407028	1000
1	293513	23.072594482733	1000
1	293728	23.088211877437	1000
1	294056	23.119179535329	1000
1	294134	23.123284039958	1000
1	294274	23.134937889881	1000
1	294393	23.148202415432	1000
1	294813	23.175538144693	1000
1	294823	23.183401050315	1000
1	294935	23.189743285167	1000
1	294939	23.189766843602	1000
1	295057	23.194607929526	1000
1	295157	23.201813615513	1000
1	295272	23.212449052673	1000
1	295277	23.217245896231	1000
1	295388	23.220956414841	1000
1	295720	23.251906288693	1000
1	295932	23.264773299351	1000
1	295937	23.268606739735	1000
1	296163	23.285056653016	1000
1	296267	23.294028287694	1000
1	296595	23.319314505817	1000
1	296700	23.32267654419	1000
1	296931	23.34198123271	1000
1	296936	23.343217630599	1000
1	297153	23.357603267686	1000
1	297257	23.366628648306	1000
1	297261	23.368055148043	1000
1	297266	23.371918915879	1000
1	297379	23.381178734076	1000
1	297491	23.38912176618	1000
1	297495	23.389807424228	1000
1	298046	23.429918263217	1000
1	298050	23.43254579332	1000
1	298476	23.462254336372	1000
1	298480	23.465863603294	1000
1	298484	23.465888635914	1000
1	298704	23.480384990635	1000
1	298709	23.484392826748	1000
1	298820	23.486376548146	1000
1	298824	23.488255179886	1000
1	299364	23.529370291436	1000
1	299479	23.537295112972	1000
1	299695	23.555327423921	1000
1	299922	23.575523836809	1000
1	299926	23.57604460554	1000
1	300036	23.581573440082	1000
1	300041	23.583365307456	1000
1	300144	23.592295561904	1000
1	300472	23.621105230691	1000
1	300589	23.624974312471	1000
1	300594	23.628508510192	1000
1	300718	23.639790265143	1000
1	300794	23.642500212249	1000
1	300798	23.643739747443	1000
1	300999	23.65882580815	1000
1	301226	23.683673992844	1000
1	301454	23.696985133454	1000
1	301458	23.698988163524	1000
1	301643	23.710495084274	1000
1	301681	23.715202126949	1000
1	301792	23.725890671765	1000
1	301903	23.733723307084	1000
1	302116	23.751395796678	1000
1	302443	23.774910679594	1000
1	302561	23.784606961874	1000
1	302780	23.800593304958	1000
1	303000	23.817108177598	1000
1	303111	23.829489063698	1000
1	303115	23.829851137812	1000
1	303224	23.834423497934	1000
1	303323	23.840457662869	1000
1	303568	23.863727907341	1000
1	303868	23.886159674249	1000
1	303873	23.890048969062	1000
1	303971	23.892377862339	1000
1	303981	23.896732966676	1000
1	304101	23.905560898712	1000
1	304210	23.911256659817	1000
1	304315	23.92136494986	1000
1	304539	23.935612371255	1000
1	304650	23.944002591656	1000
1	304655	23.948658501902	1000
1	304865	23.962574949027	1000
1	304869	23.963022626856	1000
1	304975	23.968918429735	1000
1	304985	23.975545788654	1000
1	305202	23.98834041782	1000
1	305207	23.98931047683	1000
1	305211	23.993382330462	1000
1	305330	23.997549289127	1000
1	305334	23.998734197053	1000
1	305653	24.021651305641	1000
1	305657	24.022580749454	1000
1	305662	24.026837855476	1000
1	305666	24.026916995173	1000
1	305670	24.027666153149	1000
1	305756	24.028129641098	1000
1	305801	24.028824795391	1000
1	305805	24.029029130724	1000
1	305814	24.032400225915	1000
1	306008	24.051644912289	1000
1	306218	24.064505632323	1000
1	306438	24.082505842121	1000
1	306551	24.095608758824	1000
1	306670	24.104063218802	1000
1	306773	24.107209707074	1000
1	306859	24.113539633188	1000
1	306999	24.123197225347	1000
1	307429	24.159290604914	1000
1	307669	24.176740961139	1000
1	307674	24.177516148687	1000
1	307758	24.185678136897	1000
1	307763	24.190169123872	1000
1	307836	24.191029281102	1000
1	307870	24.194596581253	1000
1	307874	24.1991911602	1000
1	307986	24.205638671018	1000
1	307990	24.205811187681	1000
1	308317	24.23101795875	1000
1	308663	24.253351615113	1000
1	308667	24.253979937652	1000
1	308720	24.260278281751	1000
1	309181	24.300232718827	1000
1	309288	24.304793172713	1000
1	309617	24.334910613486	1000
1	309737	24.344065239405	1000
1	309849	24.35480052811	1000
1	310166	24.378481582751	1000
1	310386	24.39022536331	1000
1	310927	24.433025765079	1000
1	311038	24.445220483898	1000
1	311042	24.448023517254	1000
1	311153	24.451339882548	1000
1	311260	24.459642167289	1000
1	311492	24.478917287196	1000
1	311598	24.485097602239	1000
1	311608	24.487041880008	1000
1	311819	24.505568238829	1000
1	312048	24.52627286118	1000
1	312907	24.591981344698	1000
1	313125	24.607698233165	1000
1	313131	24.609518785862	1000
1	313136	24.614973519097	1000
1	313360	24.627109778698	1000
1	314187	24.698324812503	1000
1	314192	24.701177568486	1000
1	314303	24.709347460862	1000
1	314637	24.735082482704	1000
1	314761	24.74164464081	1000
1	314765	24.743379364977	1000
1	315282	24.782517276638	1000
1	315501	24.798520777951	1000
1	315613	24.811584424314	1000
1	316146	24.850979799748	1000
1	316151	24.85400592411	1000
1	316263	24.857457498334	1000
1	316371	24.865675881985	1000
1	316384	24.869773053905	1000
1	316580	24.885783122685	1000
1	316807	24.902172789015	1000
1	316902	24.909096731543	1000
1	317577	24.967622967909	1000
1	317650	24.969842789683	1000
1	317655	24.970026941829	1000
1	317887	24.988081405518	1000
1	317892	24.992464195954	1000
1	318004	24.998427498374	1000
1	318008	24.999979236016	1000
4	18	0.022315250545	1008
4	53	0.026135524235	1008
4	268	0.044962277646	1008
4	371	0.050948741754	1008
4	376	0.055887677709	1008
4	593	0.068423027809	1008
4	819	0.086492438913	1008
4	931	0.094192948985	1008
4	1055	0.103012522039	1008
4	1235	0.118315254466	1008
4	1453	0.135371630627	1008
4	1463	0.137846070011	1008
4	1690	0.153869552226	1008
4	1695	0.158570801954	1008
4	1699	0.160516439827	1008
4	1810	0.163533743012	1008
4	2136	0.191480703503	1008
4	2140	0.192735438212	1008
4	2680	0.234738002425	1008
4	2785	0.239455353113	1008
4	2895	0.251525805175	1008
4	3042	0.264219722135	1008
4	3879	0.328540926338	1008
4	4312	0.36438720504	1008
4	4316	0.365599622344	1008
4	4948	0.410587999859	1008
4	4957	0.412124681043	1008
4	4962	0.416338794116	1008
4	4966	0.417855457753	1008
4	5084	0.422447869139	1008
4	5089	0.423243437957	1008
4	5307	0.437393712282	1008
4	5417	0.446282819687	1008
4	5521	0.45657756738	1008
4	5526	0.461180289949	1008
4	5751	0.47439044087	1008
4	5848	0.478490290874	1008
4	5966	0.489087839378	1008
4	6187	0.510276732247	1008
4	6300	0.514053392177	1008
4	6737	0.55335511031	1008
4	6835	0.556384150225	1008
4	6845	0.563495638554	1008
4	7179	0.585977157112	1008
4	7281	0.592037382085	1008
4	7401	0.602483812001	1008
4	7589	0.616636407205	1008
4	8054	0.654142027497	1008
4	8058	0.658449154087	1008
4	8277	0.671400996471	1008
4	8381	0.678120529312	1008
4	8386	0.682371218899	1008
4	8505	0.69249788057	1008
4	8689	0.702746837398	1008
4	8721	0.709522163411	1008
4	9048	0.736745771323	1008
4	9380	0.756436542258	1008
4	9585	0.771467832557	1008
4	9818	0.795778738362	1008
4	9900	0.797364942877	1008
4	10161	0.817125572093	1008
4	10166	0.817985676705	1008
4	10346	0.8323309395	1008
4	10572	0.856484212334	1008
4	10576	0.856625611117	1008
4	10695	0.861980644963	1008
4	10699	0.864240184666	1008
4	10809	0.873073757866	1008
4	10915	0.875751428363	1008
4	11138	0.894692381028	1008
4	11555	0.926279007379	1008
4	11681	0.936610091019	1008
4	12111	0.96926627009	1008
4	12121	0.973752908041	1008
4	12225	0.979847289513	1008
4	12230	0.982319674095	1008
4	12673	1.016988581198	1008
4	12677	1.017705952753	1008
4	12787	1.024544723537	1008
4	13001	1.038847020781	1008
4	13005	1.039146881021	1008
4	13013	1.039982293074	1008
4	13124	1.05363275514	1008
4	13235	1.062862192753	1008
4	13989	1.118538023069	1008
4	14101	1.129188046211	1008
4	14204	1.141086097726	1008
4	14322	1.144920993584	1008
4	14327	1.147385166809	1008
4	14833	1.184023382844	1008
4	14864	1.186902465077	1008
4	14983	1.19566519706	1008
4	14988	1.198455497281	1008
4	15099	1.205089557729	1008
4	15202	1.212563509446	1008
4	15322	1.223168937318	1008
4	15326	1.224669328397	1008
4	15430	1.23341161451	1008
4	15649	1.248553366592	1008
4	15653	1.250982871756	1008
4	15738	1.252860581001	1008
4	15776	1.258134045687	1008
4	16203	1.291981677068	1008
4	16322	1.30162237822	1008
4	16876	1.34084433503	1008
4	16956	1.354145252081	1008
4	17074	1.358116170655	1008
4	17078	1.358909274783	1008
4	17182	1.366886967778	1008
4	17506	1.391985646649	1008
4	17935	1.427772054755	1008
4	17940	1.4319330944	1008
4	18271	1.454614314777	1008
4	18276	1.456538323911	1008
4	18896	1.504633719769	1008
4	18906	1.507160119227	1008
4	19025	1.515752663043	1008
4	19030	1.516988283408	1008
4	19340	1.540770967501	1008
4	19559	1.558620124553	1008
4	19638	1.564895736397	1008
4	19675	1.566601242534	1008
4	19680	1.567260131005	1008
4	19883	1.582777905311	1008
4	19892	1.584685103467	1008
4	19896	1.585679450742	1008
4	19901	1.586805945309	1008
4	20122	1.600184594372	1008
4	20236	1.609964814343	1008
4	20448	1.62554616197	1008
4	20453	1.62622976036	1008
4	20462	1.630537296181	1008
4	20567	1.634184954892	1008
4	20677	1.647981851545	1008
4	20795	1.651982691606	1008
4	20800	1.654380958061	1008
4	21020	1.673025904085	1008
4	21238	1.691124486865	1008
4	21348	1.696741764304	1008
4	21353	1.700564770479	1008
4	21457	1.706125450809	1008
4	21575	1.713516482214	1008
4	21793	1.732817496403	1008
4	21899	1.737214911905	1008
4	22336	1.77567261786	1008
4	22447	1.784891657962	1008
4	22543	1.788793708408	1008
4	22554	1.794778016402	1008
4	23091	1.832371970277	1008
4	23100	1.839735220794	1008
4	23341	1.855190764495	1008
4	23533	1.869245928834	1008
4	23746	1.886211328788	1008
4	23751	1.888311269367	1008
4	23978	1.907409942841	1008
4	24090	1.918137959673	1008
4	24200	1.925470650408	1008
4	24310	1.935759871639	1008
4	24735	1.964502029112	1008
4	24740	1.965279217425	1008
4	24854	1.971899660776	1008
4	25077	1.994588410629	1008
4	25187	1.999857334456	1008
4	25191	2.000054893864	1008
4	25196	2.00251312107	1008
4	25298	2.008668244972	1008
4	25303	2.00992743794	1008
4	25738	2.044798473184	1008
4	25903	2.056235943643	1008
4	25934	2.056424693128	1008
4	25966	2.057270716508	1008
4	25976	2.060753997489	1008
4	25980	2.063753407289	1008
4	26083	2.06725676015	1008
4	26087	2.067402071091	1008
4	26092	2.068874651179	1008
4	26203	2.080437763534	1008
4	26957	2.136121123485	1008
4	26962	2.14020397012	1008
4	27076	2.143519632435	1008
4	27085	2.146908992979	1008
4	27290	2.160063303711	1008
4	27414	2.169771060053	1008
4	27520	2.1844846466	1008
4	27632	2.189850325431	1008
4	28067	2.220928239177	1008
4	28687	2.271724428733	1008
4	29144	2.307904047999	1008
4	29477	2.333520476733	1008
4	29684	2.350097985691	1008
4	29694	2.357256584694	1008
4	29813	2.361613530776	1008
4	29817	2.364871170373	1008
4	29922	2.373246420959	1008
4	30141	2.385307808742	1008
4	30354	2.401980110825	1008
4	31123	2.464201663901	1008
4	31227	2.469992566483	1008
4	31667	2.511220047193	1008
4	31778	2.517485382846	1008
4	31883	2.521289111405	1008
4	31894	2.527453338764	1008
4	31997	2.53088016581	1008
4	32002	2.535339554868	1008
4	32122	2.540941926991	1008
4	32333	2.557606054277	1008
4	32607	2.58139980524	1008
4	32671	2.588489827885	1008
4	32774	2.59363112023	1008
4	32994	2.607323640241	1008
4	33004	2.610075446301	1008
4	33009	2.615092546208	1008
4	33220	2.628625671411	1008
4	33300	2.632612798894	1008
4	33349	2.63298122017	1008
4	33353	2.633076204328	1008
4	33364	2.638671768645	1008
4	33443	2.647745763618	1008
4	33447	2.648870828269	1008
4	33565	2.655120174647	1008
4	33671	2.660153926529	1008
4	33681	2.664080451105	1008
4	33685	2.666905321503	1008
4	33782	2.668380872306	1008
4	33907	2.682640822229	1008
4	34333	2.718319322303	1008
4	34883	2.757807108266	1008
4	35075	2.776582986874	1008
4	35179	2.785389426478	1008
4	35183	2.786532840272	1008
4	35296	2.789634351257	1008
4	35406	2.801349855533	1008
4	35525	2.812923852674	1008
4	36186	2.86022135689	1008
4	36670	2.901633478442	1008
4	36701	2.905914073474	1008
4	36705	2.908012996595	1008
4	37032	2.934103791481	1008
4	37257	2.947089014095	1008
4	37370	2.961396041	1008
4	37402	2.961881099932	1008
4	37472	2.962622893716	1008
4	37809	2.991219712994	1008
4	37921	3.000252948818	1008
4	38863	3.074603870243	1008
4	38951	3.082396798965	1008
4	38991	3.086405699962	1008
4	39096	3.095076926812	1008
4	39214	3.102394072886	1008
4	39752	3.144671888981	1008
4	39758	3.150747056586	1008
4	40814	3.23754867802	1008
4	40920	3.238324881282	1008
4	40930	3.245118435902	1008
4	41049	3.253976076813	1008
4	41589	3.29223068688	1008
4	42020	3.325185709323	1008
4	42125	3.339045403726	1008
4	42471	3.362816867279	1008
4	42521	3.366134719488	1008
4	42774	3.389692198963	1008
4	42778	3.391169524422	1008
4	42889	3.39849857452	1008
4	43000	3.4051122299	1008
4	43004	3.406609680168	1008
4	43104	3.410406808862	1008
4	43111	3.416532959773	1008
4	43337	3.429887325512	1008
4	43460	3.442120067769	1008
4	43538	3.448902607387	1008
4	43542	3.449774000084	1008
4	43872	3.47051311256	1008
4	43876	3.471917953032	1008
4	43975	3.478148997731	1008
4	43985	3.482795367338	1008
4	43989	3.483160263263	1008
4	44208	3.499199084271	1008
4	44427	3.513776152774	1008
4	44431	3.515084535137	1008
4	44766	3.539308500256	1008
4	44870	3.548221185252	1008
4	44875	3.550758239352	1008
4	44879	3.550989936614	1008
4	44998	3.559751400857	1008
4	45108	3.565357239575	1008
4	45112	3.566364760055	1008
4	45117	3.567434813042	1008
4	45121	3.570437852407	1008
4	45125	3.571702366095	1008
4	45235	3.575397631642	1008
4	45239	3.576211902179	1008
4	45553	3.599490243294	1008
4	45563	3.606804953464	1008
4	45680	3.608802835791	1008
4	45758	3.615611253227	1008
4	45796	3.62077031966	1008
4	46014	3.639020830552	1008
4	46018	3.639373389919	1008
4	46342	3.666498195288	1008
4	47080	3.718938192305	1008
4	47204	3.732676829699	1008
4	47316	3.741594457551	1008
4	47320	3.743684488204	1008
4	47424	3.744259734599	1008
4	47429	3.744306148477	1008
4	47439	3.746666796741	1008
4	47543	3.758054632902	1008
4	47867	3.783688960018	1008
4	47984	3.787975981561	1008
4	48307	3.820028281243	1008
4	48426	3.825609310168	1008
4	48430	3.829024512376	1008
4	48535	3.833621329181	1008
4	48653	3.840982345974	1008
4	48658	3.845897871895	1008
4	48985	3.871409038734	1008
4	49512	3.912037929569	1008
4	49911	3.942767456546	1008
4	50164	3.965080335415	1008
4	50488	3.987287363174	1008
4	50493	3.991639656808	1008
4	50497	3.992579854421	1008
4	50601	3.999213446423	1008
4	50720	4.00929144844	1008
4	50925	4.020180403479	1008
4	51257	4.052538821726	1008
4	51368	4.060464508457	1008
4	51595	4.072714497486	1008
4	51814	4.092603231734	1008
4	51919	4.097808426008	1008
4	52139	4.115442825798	1008
4	52148	4.119528564096	1008
4	52466	4.144424392685	1008
4	52584	4.150614973355	1008
4	52689	4.159596544174	1008
4	52693	4.159603097614	1008
4	52699	4.166252107352	1008
4	52703	4.167040065574	1008
4	52814	4.169842230046	1008
4	52819	4.172753177553	1008
4	53166	4.196204882813	1008
4	53171	4.197679872271	1008
4	53363	4.213298377572	1008
4	53467	4.221131301019	1008
4	53471	4.221738599531	1008
4	53476	4.225897403641	1008
4	53702	4.240962811699	1008
4	53706	4.242323668365	1008
4	54019	4.262725155516	1008
4	54029	4.269051180992	1008
4	54142	4.274662669919	1008
4	54476	4.301047853395	1008
4	54898	4.331282935302	1008
4	54907	4.336619556761	1008
4	55350	4.369817318778	1008
4	55892	4.409443526207	1008
4	55897	4.411905960027	1008
4	56008	4.421034559249	1008
4	56059	4.425601650041	1008
4	56117	4.432707747689	1008
4	56236	4.438013549752	1008
4	56453	4.453803320533	1008
4	56556	4.464148060061	1008
4	56783	4.483199611512	1008
4	57001	4.499176463717	1008
4	57104	4.506162636355	1008
4	57215	4.513301151426	1008
4	57336	4.5249491404	1008
4	57662	4.549138949972	1008
4	57881	4.569120806701	1008
4	57885	4.569855439886	1008
4	58211	4.594907723044	1008
4	58215	4.59722159891	1008
4	58320	4.598699799377	1008
4	58329	4.599402505557	1008
4	58863	4.646641779115	1008
4	59080	4.663636100881	1008
4	59192	4.672377068586	1008
4	59527	4.700148367369	1008
4	59531	4.700620210368	1008
4	59797	4.718419692748	1008
4	59854	4.718946164883	1008
4	59863	4.720206930878	1008
4	59963	4.72795268813	1008
4	59972	4.732201753731	1008
4	59976	4.734165186693	1008
4	60092	4.738975701257	1008
4	60097	4.740790934598	1008
4	60101	4.743886277349	1008
4	60205	4.744742321426	1008
4	60216	4.750777270426	1008
4	60319	4.755244651824	1008
4	60324	4.760157923576	1008
4	60563	4.77577127523	1008
4	61069	4.819483791486	1008
4	61188	4.82834594193	1008
4	61507	4.854773163275	1008
4	61618	4.862144526618	1008
4	61735	4.866710883139	1008
4	61947	4.882415225056	1008
4	62160	4.898343100726	1008
4	62277	4.906813324667	1008
4	62289	4.909450009613	1008
4	62393	4.918636255299	1008
4	62398	4.922988115455	1008
4	62624	4.933718515338	1008
4	62737	4.949164220608	1008
4	63165	4.979822790085	1008
4	63391	4.99752300986	1008
4	63395	5.000652647735	1008
4	63506	5.009136265704	1008
4	63611	5.010369650088	1008
4	63943	5.04381711368	1008
4	63947	5.043938489787	1008
4	64058	5.05168967323	1008
4	64062	5.052229333245	1008
4	64381	5.077624739421	1008
4	64924	5.114489803104	1008
4	64934	5.120854299082	1008
4	65037	5.128921702422	1008
4	65162	5.139581111648	1008
4	65266	5.142808757988	1008
4	65378	5.155055987804	1008
4	65595	5.173131859751	1008
4	65698	5.17559179944	1008
4	65702	5.177254061545	1008
4	65814	5.184905642176	1008
4	66253	5.219462567552	1008
4	66258	5.223162138167	1008
4	66262	5.224796017047	1008
4	66471	5.233749757011	1008
4	66584	5.245574439946	1008
4	66589	5.245869305695	1008
4	66699	5.252617174795	1008
4	66919	5.275645143891	1008
4	67037	5.279350093106	1008
4	67141	5.287284129315	1008
4	67363	5.308112150709	1008
4	67589	5.326910268371	1008
4	67799	5.341557514833	1008
4	67803	5.341694555872	1008
4	67914	5.35028471324	1008
4	67918	5.350913825466	1008
4	68461	5.391321165212	1008
4	68466	5.393789194652	1008
4	68686	5.407901911379	1008
4	69232	5.452213996034	1008
4	69666	5.493272436988	1008
4	70094	5.522613887088	1008
4	70428	5.548570045477	1008
4	70891	5.589525004629	1008
4	70973	5.593234416911	1008
4	71591	5.643718136354	1008
4	71689	5.650329320049	1008
4	71698	5.65247430869	1008
4	71815	5.659461612664	1008
4	71929	5.668320914211	1008
4	72250	5.696724019889	1008
4	72793	5.736091462038	1008
4	72802	5.737735339537	1008
4	72913	5.748236918564	1008
4	72917	5.750898322356	1008
4	73449	5.788414746085	1008
4	73454	5.79321423057	1008
4	73682	5.812043080737	1008
4	73792	5.815043372164	1008
4	73796	5.816340359851	1008
4	73895	5.82241093102	1008
4	74013	5.830881901106	1008
4	74123	5.845588777129	1008
4	74340	5.857649811803	1008
4	74568	5.876978412428	1008
4	74767	5.898018476877	1008
4	74987	5.914703661951	1008
4	75312	5.941489983262	1008
4	75431	5.948352432442	1008
4	75850	5.979191035114	1008
4	76466	6.028703901619	1008
4	76822	6.059850478891	1008
4	76933	6.065346911423	1008
4	77054	6.077928818033	1008
4	77380	6.10212514906	1008
4	77485	6.107660502615	1008
4	77594	6.117524564303	1008
4	77599	6.121579083226	1008
4	77603	6.121814935512	1008
4	77734	6.12792930076	1008
4	78142	6.162135327278	1008
4	78254	6.171686772506	1008
4	78258	6.172932584543	1008
4	78470	6.192310506077	1008
4	78778	6.21208639371	1008
4	78787	6.214319739284	1008
4	78792	6.216247102579	1008
4	79011	6.234054472183	1008
4	79656	6.28242940927	1008
4	79661	6.285161569096	1008
4	79780	6.295186717066	1008
4	79784	6.296514358138	1008
4	79888	6.298001522142	1008
4	79892	6.298057510555	1008
4	79902	6.304695085208	1008
4	80115	6.317789856207	1008
4	80119	6.318566736143	1008
4	80123	6.322477434528	1008
4	80234	6.324703456532	1008
4	80238	6.326671064193	1008
4	80457	6.346316624511	1008
4	80569	6.354927887989	1008
4	80680	6.360355640277	1008
[...]
45	297988	23.42439557358	1
45	298026	23.424507457956	2
45	298072	23.432795457956	1
45	298091	23.432805647534	3
45	298110	23.432869647534	1
45	298141	23.433140802596	2
45	298179	23.441428802596	1
45	298198	23.441438992174	3
45	298217	23.441502992174	1
45	298248	23.441694147236	2
45	298286	23.449982147236	1
45	298305	23.449992336814	3
45	298324	23.450056336814	1
45	298355	23.450267491876	2
45	298393	23.458555491876	1
45	298412	23.458565681454	3
45	298431	23.458629681454	1
45	298458	23.458959681454	3
45	298497	23.467247681454	1
45	298519	23.467258286396	3
45	298545	23.467322286396	1
45	298579	23.467833026094	3
45	298606	23.476121026094	1
45	298628	23.476131631036	3
45	298654	23.476195631036	1
45	298687	23.476506370734	3
45	298722	23.484794370734	1
45	298744	23.484804975676	3
45	298770	23.484868975676	1
45	298803	23.485019715374	3
45	298838	23.493307715374	1
45	298860	23.493318320316	3
45	298886	23.493382320316	1
45	298917	23.493433060014	3
45	298945	23.501721060014	1
45	298967	23.501731664956	3
45	298993	23.501795664956	1
45	299031	23.502007549332	2
45	299069	23.510295549332	1
45	299088	23.51030573891	3
45	299107	23.51036973891	1
45	299137	23.510440893972	2
45	299175	23.518728893972	1
45	299194	23.51873908355	3
45	299213	23.51880308355	1
45	299240	23.51927308355	3
45	299267	23.52756108355	1
45	299289	23.527571688492	3
45	299315	23.527635688492	1
45	299348	23.52782642819	3
45	299378	23.53611442819	1
45	299400	23.536125033132	3
45	299426	23.536189033132	1
45	299465	23.536700917508	2
45	299506	23.544988917508	1
45	299525	23.544999107086	3
45	299544	23.545063107086	1
45	299570	23.545373107086	3
45	299597	23.553661107086	1
45	299619	23.553671712028	3
45	299645	23.553735712028	1
45	299678	23.553946451726	3
45	299709	23.562234451726	1
45	299731	23.562245056668	3
45	299757	23.562309056668	1
45	299791	23.562799796366	3
45	299817	23.571087796366	1
45	299839	23.571098401308	3
45	299865	23.571162401308	1
45	299903	23.571314285684	2
45	299948	23.579602285684	1
45	299967	23.579612475262	3
45	299986	23.579676475262	1
45	300018	23.580227630324	2
45	300063	23.588515630324	1
45	300082	23.588525819902	3
45	300101	23.588589819902	1
45	300127	23.588739819902	3
45	300157	23.597027819902	1
45	300179	23.597038424844	3
45	300205	23.597102424844	1
45	300237	23.597193164542	3
45	300264	23.605481164542	1
45	300286	23.605491769484	3
45	300312	23.605555769484	1
45	300346	23.605886509182	3
45	300373	23.614174509182	1
45	300395	23.614185114124	3
45	300421	23.614249114124	1
45	300454	23.614439853822	3
45	300485	23.622727853822	1
45	300507	23.622738458764	3
45	300533	23.622802458764	1
45	300570	23.62289434314	2
45	300616	23.63118234314	1
45	300635	23.631192532718	3
45	300654	23.631256532718	1
45	300681	23.631846532718	3
45	300731	23.640134532718	2
45	300751	23.64013568778	1
45	300778	23.641118532718	3
45	300812	23.649406532718	1
45	300834	23.64941713766	3
45	300860	23.64948113766	1
45	300893	23.649791877358	3
45	300940	23.658079877358	2
45	300961	23.658081022036	1
45	300988	23.658623877358	3
45	301019	23.666911877358	1
45	301041	23.6669224823	3
45	301067	23.6669864823	1
45	301099	23.667057221998	3
45	301126	23.675345221998	1
45	301148	23.67535582694	3
45	301174	23.67541982694	1
45	301208	23.675750566638	3
45	301239	23.684038566638	1
45	301261	23.68404917158	3
45	301287	23.68411317158	1
45	301321	23.684623911278	3
45	301348	23.692911911278	1
45	301370	23.69292251622	3
45	301396	23.69298651622	1
45	301435	23.693458400596	2
45	301481	23.701746400596	1
45	301500	23.701756590174	3
45	301519	23.701820590174	1
45	301544	23.701890590174	3
45	301571	23.710178590174	1
45	301593	23.710189195116	3
45	301619	23.710253195116	1
45	301661	23.710505079492	2
45	301703	23.718793079492	1
45	301722	23.71880326907	3
45	301741	23.71886726907	1
45	301772	23.719138424132	2
45	301814	23.727426424132	1
45	301833	23.72743661371	3
45	301852	23.72750061371	1
45	301883	23.727671768772	2
45	301925	23.735959768772	1
45	301944	23.73596995835	3
45	301963	23.73603395835	1
45	301990	23.73636395835	3
45	302017	23.74465195835	1
45	302039	23.744662563292	3
45	302065	23.744726563292	1
45	302098	23.74483730299	3
45	302129	23.75312530299	1
45	302151	23.753135907932	3
45	302177	23.753199907932	1
45	302210	23.75345064763	3
45	302237	23.76173864763	1
45	302259	23.761749252572	3
45	302285	23.761813252572	1
45	302323	23.762085136948	2
45	302361	23.770373136948	1
45	302380	23.770383326526	3
45	302399	23.770447326526	1
45	302425	23.770657326526	3
45	302456	23.778945326526	1
45	302478	23.778955931468	3
45	302504	23.779019931468	1
45	302541	23.779111815844	2
45	302583	23.787399815844	1
45	302602	23.787410005422	3
45	302621	23.787474005422	1
45	302647	23.787604005422	3
45	302674	23.795892005422	1
45	302696	23.795902610364	3
45	302722	23.795966610364	1
45	302761	23.79661849474	2
45	302803	23.80490649474	1
45	302822	23.804916684318	3
45	302841	23.804980684318	1
45	302868	23.805370684318	3
45	302895	23.813658684318	1
45	302917	23.81366928926	3
45	302943	23.81373328926	1
45	302981	23.814045173636	2
45	303022	23.822333173636	1
45	303041	23.822343363214	3
45	303060	23.822407363214	1
45	303092	23.822958518276	2
45	303138	23.831246518276	1
45	303157	23.831256707854	3
45	303176	23.831320707854	1
45	303206	23.831371862916	2
45	303247	23.839659862916	1
45	303266	23.839670052494	3
45	303285	23.839734052494	1
45	303311	23.839964052494	3
45	303342	23.848252052494	1
45	303364	23.848262657436	3
45	303390	23.848326657436	1
45	303422	23.848397397134	3
45	303449	23.856685397134	1
45	303471	23.856696002076	3
45	303497	23.856760002076	1
45	303530	23.856870741774	3
45	303581	23.865158741774	2
45	303602	23.865159886452	1
45	303629	23.866002741774	3
45	303656	23.874290741774	1
45	303678	23.874301346716	3
45	303704	23.874365346716	1
45	303735	23.874416086414	3
45	303763	23.882704086414	1
45	303785	23.882714691356	3
45	303811	23.882778691356	1
45	303849	23.883010575732	2
45	303895	23.891298575732	1
45	303914	23.89130876531	3
45	303933	23.89137276531	1
45	303959	23.89150276531	3
45	303994	23.89979076531	1
45	304016	23.899801370252	3
45	304042	23.899865370252	1
45	304081	23.900237254628	2
45	304123	23.908525254628	1
45	304142	23.908535444206	3
45	304161	23.908599444206	1
45	304191	23.908650599268	2
45	304233	23.916938599268	1
45	304252	23.916948788846	3
45	304271	23.917012788846	1
45	304297	23.917222788846	3
45	304328	23.925510788846	1
45	304350	23.925521393788	3
45	304376	23.925585393788	1
45	304413	23.925637278164	2
45	304451	23.933925278164	1
45	304470	23.933935467742	3
45	304489	23.933999467742	1
45	304520	23.934170622804	2
45	304562	23.942458622804	1
45	304581	23.942468812382	3
45	304600	23.942532812382	1
45	304631	23.942643967444	2
45	304677	23.950931967444	1
45	304696	23.950942157022	3
45	304715	23.951006157022	1
45	304741	23.951276157022	3
45	304768	23.959564157022	1
45	304790	23.959574761964	3
45	304816	23.959638761964	1
45	304847	23.959689501662	3
45	304883	23.967977501662	1
45	304905	23.967988106604	3
45	304931	23.968052106604	1
45	304963	23.968142846302	3
45	304998	23.976430846302	1
45	305020	23.976441451244	3
45	305046	23.976505451244	1
45	305083	23.97659733562	2
45	305121	23.98488533562	1
45	305140	23.984895525198	3
45	305159	23.984959525198	1
45	305185	23.985249525198	3
45	305224	23.993537525198	1
45	305246	23.99354813014	3
45	305272	23.99361213014	1
45	305310	23.993724014516	2
45	305356	24.002012014516	1
45	305375	24.002022204094	3
45	305394	24.002086204094	1
45	305420	24.002216204094	3
45	305447	24.010504204094	1
45	305469	24.010514809036	3
45	305495	24.010578809036	1
45	305528	24.010789548734	3
45	305555	24.019077548734	1
45	305577	24.019088153676	3
45	305603	24.019152153676	1
45	305636	24.019382893374	3
45	305683	24.027670893374	1
45	305705	24.027681498316	3
45	305731	24.027745498316	1
45	305769	24.028376238014	3
45	305828	24.036664238014	2
45	305849	24.036665382692	1
45	305875	24.036828238014	3
45	305902	24.045116238014	1
45	305924	24.045126842956	3
45	305950	24.045190842956	1
45	305988	24.045422727332	2
45	306030	24.053710727332	1
45	306049	24.05372091691	3
45	306068	24.05378491691	1
45	306094	24.05393491691	3
45	306121	24.06222291691	1
45	306143	24.062233521852	3
45	306169	24.062297521852	1
45	306201	24.06236826155	3
45	306232	24.07065626155	1
45	306254	24.070666866492	3
45	306280	24.070730866492	1
45	306313	24.07096160619	3
45	306340	24.07924960619	1
45	306362	24.079260211132	3
45	306388	24.079324211132	1
45	306421	24.07943495083	3
45	306452	24.08772295083	1
45	306474	24.087733555772	3
45	306500	24.087797555772	1
45	306533	24.08804829547	3
45	306564	24.09633629547	1
45	306586	24.096346900412	3
45	306612	24.096410900412	1
45	306650	24.096582784788	2
45	306692	24.104870784788	1
45	306711	24.104880974366	3
45	306730	24.104944974366	1
45	306756	24.105054974366	3
45	306787	24.113342974366	1
45	306809	24.113353579308	3
45	306835	24.113417579308	1
45	306877	24.113549463684	2
45	306915	24.121837463684	1
45	306934	24.121847653262	3
45	306953	24.121911653262	1
45	306984	24.122042808324	2
45	307026	24.130330808324	1
45	307045	24.130340997902	3
45	307064	24.130404997902	1
45	307090	24.130514997902	3
45	307117	24.138802997902	1
45	307139	24.138813602844	3
45	307165	24.138877602844	1
45	307199	24.139388342542	3
45	307225	24.147676342542	1
45	307247	24.147686947484	3
45	307273	24.147750947484	1
45	307311	24.14786283186	2
45	307348	24.15615083186	1
45	307367	24.156161021438	3
45	307386	24.156225021438	1
45	307412	24.156495021438	3
45	307443	24.164783021438	1
45	307465	24.16479362638	3
45	307491	24.16485762638	1
45	307525	24.165328366078	3
45	307552	24.173616366078	1
45	307574	24.17362697102	3
45	307600	24.17369097102	1
45	307633	24.173821710718	3
45	307687	24.182109710718	2
45	307708	24.182110855396	1
45	307740	24.182634855396	2
45	307785	24.190922855396	1
45	307804	24.190933044974	3
45	307823	24.190997044974	1
45	307851	24.191047044974	3
45	307887	24.199335044974	1
45	307909	24.199345649916	3
45	307935	24.199409649916	1
45	307968	24.199720389614	3
45	308003	24.208008389614	1
45	308025	24.208018994556	3
45	308051	24.208082994556	1
45	308083	24.208153734254	3
45	308110	24.216441734254	1
45	308132	24.216452339196	3
45	308158	24.216516339196	1
45	308189	24.216567078894	3
45	308217	24.224855078894	1
45	308239	24.224865683836	3
45	308265	24.224929683836	1
45	308299	24.225260423534	3
45	308330	24.233548423534	1
45	308352	24.233559028476	3
45	308378	24.233623028476	1
45	308417	24.233994912852	2
45	308454	24.242282912852	1
45	308473	24.24229310243	3
45	308492	24.24235710243	1
45	308518	24.24252710243	3
45	308545	24.25081510243	1
45	308567	24.250825707372	3
45	308593	24.250889707372	1
45	308627	24.25138044707	3
45	308681	24.25966844707	2
45	308702	24.259669591748	1
45	308733	24.26065244707	3
45	308760	24.26894044707	1
45	308782	24.268951052012	3
45	308808	24.269015052012	1
45	308841	24.26926579171	3
45	308868	24.27755379171	1
45	308890	24.277564396652	3
45	308916	24.277628396652	1
45	308954	24.277940281028	2
45	308992	24.286228281028	1
45	309011	24.286238470606	3
45	309030	24.286302470606	1
45	309056	24.286612470606	3
45	309082	24.294900470606	1
45	309104	24.294911075548	3
45	309130	24.294975075548	1
45	309163	24.295125815246	3
45	309194	24.303413815246	1
45	309216	24.303424420188	3
45	309242	24.303488420188	1
45	309276	24.303939159886	3
45	309306	24.312227159886	1
45	309328	24.312237764828	3
45	309354	24.312301764828	1
45	309387	24.312552504526	3
45	309413	24.320840504526	1
45	309435	24.320851109468	3
45	309461	24.320915109468	1
45	309498	24.320966993844	2
45	309536	24.329254993844	1
45	309555	24.329265183422	3
45	309574	24.329329183422	1
45	309599	24.329399183422	3
45	309630	24.337687183422	1
45	309652	24.337697788364	3
45	309678	24.337761788364	1
45	309717	24.33823367274	2
45	309759	24.34652167274	1
45	309778	24.346531862318	3
45	309797	24.346595862318	1
45	309829	24.34698701738	2
45	309871	24.35527501738	1
45	309890	24.355285206958	3
45	309909	24.355349206958	1
45	309940	24.35566036202	2
45	309977	24.36394836202	1
45	309996	24.363958551598	3
45	310015	24.364022551598	1
45	310047	24.36437370666	2
45	310084	24.37266170666	1
45	310103	24.372671896238	3
45	310122	24.372735896238	1
45	310148	24.372945896238	3
45	310179	24.381233896238	1
45	310201	24.38124450118	3
45	310227	24.38130850118	1
45	310259	24.381379240878	3
45	310286	24.389667240878	1
45	310308	24.38967784582	3
45	310334	24.38974184582	1
45	310372	24.389893730196	2
45	310414	24.398181730196	1
45	310433	24.398191919774	3
45	310452	24.398255919774	1
45	310479	24.398645919774	3
45	310506	24.406933919774	1
45	310528	24.406944524716	3
45	310554	24.407008524716	1
45	310587	24.407159264414	3
45	310614	24.415447264414	1
45	310636	24.415457869356	3
45	310662	24.415521869356	1
45	310700	24.415653753732	2
45	310738	24.423941753732	1
45	310757	24.42395194331	3
45	310776	24.42401594331	1
45	310807	24.424247098372	2
45	310845	24.432535098372	1
45	310864	24.43254528795	3
45	310883	24.43260928795	1
45	310914	24.432880443012	2
45	310956	24.441168443012	1
45	310975	24.44117863259	3
45	310994	24.44124263259	1
45	311021	24.44177263259	3
45	311056	24.45006063259	1
45	311078	24.450071237532	3
45	311104	24.450135237532	1
45	311137	24.45028597723	3
45	311167	24.45857397723	1
45	311189	24.458584582172	3
45	311215	24.458648582172	1
45	311248	24.45895932187	3
45	311279	24.46724732187	1
45	311301	24.467257926812	3
45	311327	24.467321926812	1
45	311361	24.46777266651	3
45	311388	24.47606066651	1
45	311410	24.476071271452	3
45	311436	24.476135271452	1
45	311473	24.476187155828	2
45	311515	24.484475155828	1
45	311534	24.484485345406	3
45	311553	24.484549345406	1
45	311585	24.484980500468	2
45	311631	24.493268500468	1
45	311650	24.493278690046	3
45	311669	24.493342690046	1
45	311700	24.493653845108	2
45	311738	24.501941845108	1
45	311757	24.501952034686	3
45	311776	24.502016034686	1
45	311802	24.502126034686	3
45	311833	24.510414034686	1
45	311855	24.510424639628	3
45	311881	24.510488639628	1
45	311915	24.510919379326	3
45	311942	24.519207379326	1
45	311964	24.519217984268	3
45	311990	24.519281984268	1
45	312029	24.519673868644	2
45	312071	24.527961868644	1
45	312090	24.527972058222	3
45	312109	24.528036058222	1
45	312136	24.528386058222	3
45	312163	24.536674058222	1
45	312185	24.536684663164	3
45	312211	24.536748663164	1
45	312250	24.53710054754	2
45	312287	24.54538854754	1
45	312306	24.545398737118	3
45	312325	24.545462737118	1
45	312352	24.546012737118	3
45	312379	24.554300737118	1
45	312401	24.55431134206	3
45	312427	24.55437534206	1
45	312460	24.554586081758	3
45	312487	24.562874081758	1
45	312509	24.5628846867	3
45	312535	24.5629486867	1
45	312573	24.563160571076	2
45	312611	24.571448571076	1
45	312630	24.571458760654	3
45	312649	24.571522760654	1
45	312676	24.571912760654	3
45	312702	24.580200760654	1
45	312724	24.580211365596	3
45	312750	24.580275365596	1
45	312789	24.580727249972	2
45	312827	24.589015249972	1
45	312846	24.58902543955	3
45	312865	24.58908943955	1
45	312891	24.58937943955	3
45	312922	24.59766743955	1
45	312944	24.597678044492	3
45	312970	24.597742044492	1
45	313008	24.597873928868	2
45	313046	24.606161928868	1
45	313065	24.606172118446	3
45	313084	24.606236118446	1
45	313111	24.606766118446	3
45	313149	24.615054118446	1
45	313171	24.615064723388	3
45	313197	24.615128723388	1
45	313235	24.615320607764	2
45	313273	24.623608607764	1
45	313292	24.623618797342	3
45	313311	24.623682797342	1
45	313341	24.623753952404	2
45	313383	24.632041952404	1
45	313402	24.632052141982	3
45	313421	24.632116141982	1
45	313446	24.632186141982	3
45	313473	24.640474141982	1
45	313495	24.640484746924	3
45	313521	24.640548746924	1
45	313559	24.6408206313	2
45	313597	24.6491086313	1
45	313616	24.649118820878	3
45	313635	24.649182820878	1
45	313661	24.649492820878	3
45	313687	24.657780820878	1
45	313709	24.65779142582	3
45	313735	24.65785542582	1
45	313773	24.658147310196	2
45	313810	24.666435310196	1
45	313829	24.666445499774	3
45	313848	24.666509499774	1
45	313874	24.666739499774	3
45	313921	24.675027499774	2
45	313941	24.675028654836	1
45	313968	24.675491499774	3
45	313994	24.683779499774	1
45	314016	24.683790104716	3
45	314042	24.683854104716	1
45	314075	24.684004844414	3
45	314122	24.692292844414	2
45	314143	24.692293989092	1
45	314170	24.693096844414	3
45	314205	24.701384844414	1
45	314227	24.701395449356	3
45	314253	24.701459449356	1
45	314284	24.701510189054	3
45	314316	24.709798189054	1
45	314338	24.709808793996	3
45	314364	24.709872793996	1
45	314397	24.709983533694	3
45	314424	24.718271533694	1
45	314446	24.718282138636	3
45	314472	24.718346138636	1
45	314510	24.718478023012	2
45	314548	24.726766023012	1
45	314567	24.72677621259	3
45	314586	24.72684021259	1
45	314617	24.727091367652	2
45	314659	24.735379367652	1
45	314678	24.73538955723	3
45	314697	24.73545355723	1
45	314724	24.73600355723	3
45	314779	24.74429155723	2
45	314799	24.744292712292	1
45	314831	24.744936712292	2
45	314869	24.753224712292	1
45	314888	24.75323490187	3
45	314907	24.75329890187	1
45	314933	24.75358890187	3
45	314960	24.76187690187	1
45	314982	24.761887506812	3
45	315008	24.761951506812	1
45	315041	24.76218224651	3
45	315068	24.77047024651	1
45	315090	24.770480851452	3
45	315116	24.770544851452	1
45	315149	24.77079559115	3
45	315176	24.77908359115	1
45	315198	24.779094196092	3
45	315224	24.779158196092	1
45	315263	24.779610080468	2
45	315304	24.787898080468	1
45	315323	24.787908270046	3
45	315342	24.787972270046	1
45	315369	24.788362270046	3
45	315396	24.796650270046	1
45	315418	24.796660874988	3
45	315444	24.796724874988	1
45	315482	24.796876759364	2
45	315524	24.805164759364	1
45	315543	24.805174948942	3
45	315562	24.805238948942	1
45	315593	24.805350104004	2
45	315635	24.813638104004	1
45	315654	24.813648293582	3
45	315673	24.813712293582	1
45	315700	24.814162293582	3
45	315727	24.822450293582	1
45	315749	24.822460898524	3
45	315775	24.822524898524	1
45	315808	24.822675638222	3
45	315834	24.830963638222	1
45	315856	24.830974243164	3
45	315882	24.831038243164	1
45	315915	24.831308982862	3
45	315942	24.839596982862	1
45	315964	24.839607587804	3
45	315990	24.839671587804	1
45	316027	24.83976347218	2
45	316065	24.84805147218	1
45	316084	24.848061661758	3
45	316103	24.848125661758	1
45	316130	24.848615661758	3
45	316164	24.856903661758	1
45	316186	24.8569142667	3
45	316212	24.8569782667	1
45	316250	24.857210151076	2
45	316292	24.865498151076	1
45	316311	24.865508340654	3
45	316330	24.865572340654	1
45	316360	24.865643495716	2
45	316406	24.873931495716	1
45	316425	24.873941685294	3
45	316444	24.874005685294	1
45	316471	24.874615685294	3
45	316517	24.882903685294	2
45	316537	24.882904840356	1
45	316564	24.883627685294	3
45	316594	24.891915685294	1
45	316616	24.891926290236	3
45	316642	24.891990290236	1
45	316675	24.892141029934	3
45	316702	24.900429029934	1
45	316724	24.900439634876	3
45	316750	24.900503634876	1
45	316788	24.900635519252	2
45	316830	24.908923519252	1
45	316849	24.90893370883	3
45	316868	24.90899770883	1
45	316893	24.90906770883	3
45	316924	24.91735570883	1
45	316946	24.917366313772	3
45	316972	24.917430313772	1
45	317010	24.917562198148	2
45	317048	24.925850198148	1
45	317067	24.925860387726	3
45	317086	24.925924387726	1
45	317112	24.926174387726	3
45	317139	24.934462387726	1
45	317161	24.934472992668	3
45	317187	24.934536992668	1
45	317226	24.934928877044	2
45	317263	24.943216877044	1
45	317282	24.943227066622	3
45	317301	24.943291066622	1
45	317332	24.943502221684	2
45	317369	24.951790221684	1
45	317388	24.951800411262	3
45	317407	24.951864411262	1
45	317431	24.951914411262	3
45	317459	24.960202411262	1
45	317481	24.960213016204	3
45	317507	24.960277016204	1
45	317539	24.960367755902	3
45	317590	24.968655755902	2
45	317611	24.96865690058	1
45	317638	24.969039755902	3
45	317673	24.977327755902	1
45	317695	24.977338360844	3
45	317721	24.977402360844	1
45	317755	24.977893100542	3
45	317782	24.986181100542	1
45	317804	24.986191705484	3
45	317830	24.986255705484	1
45	317869	24.98668758986	2
45	317915	24.99497558986	1
45	317934	24.994985779438	3
45	317953	24.995049779438	1
45	317985	24.9955009345	2
