version 2
run Wireless001-0-20170305-23:34:27-10916
attr configname Wireless001
attr datetime 20170305-23:34:27
attr experiment Wireless001
attr inifile omnetpp.ini
attr iterationvars ""
attr iterationvars2 $repetition=0
attr measurement ""
attr network recording
attr processid 10916
attr repetition 0
attr replication #0
attr resultdir results
attr runnumber 0
attr seedset 0
param *.host*.**.bitrate 1Mbps
param *.host*.networkLayer.arpType "\"GlobalARP\""
param *.host*.numUdpApps 1
param *.host*.wlan[0].radio.transmitter.communicationRange 500m
param *.host*.wlan[0].typename "\"IdealWirelessNic\""
param *.hostA.udpApp[0].destAddresses "\"hostB\""
param *.hostA.udpApp[0].destPort 5000
param *.hostA.udpApp[0].messageLength 1000B
param *.hostA.udpApp[0].packetName "\"MIKU\""
param *.hostA.udpApp[0].sendInterval exponential(12ms)
param *.hostA.udpApp[0].typename "\"UDPBasicApp\""
param *.hostB.udpApp[0].localPort 5000
param *.hostB.udpApp[0].typename "\"UDPSink\""

vector 15  recording.hostA.wlan[0].queue  queueLength:vector  ETV
attr interpolationmode  sample-hold
attr title  "queue length, vector"
vector 38  recording.hostB.wlan[0].queue  queueLength:vector  ETV
attr interpolationmode  sample-hold
attr title  "queue length, vector"
vector 21  recording.hostA.wlan[0].radio  radioMode:vector  ETV
attr interpolationmode  sample-hold
attr source  radioModeChanged
attr title  "Radio mode, vector"
vector 44  recording.hostB.wlan[0].radio  radioMode:vector  ETV
attr interpolationmode  sample-hold
attr source  radioModeChanged
attr title  "Radio mode, vector"
vector 22  recording.hostA.wlan[0].radio  receptionState:vector  ETV
attr interpolationmode  sample-hold
attr source  receptionStateChanged
attr title  "Radio reception state, vector"
vector 23  recording.hostA.wlan[0].radio  transmissionState:vector  ETV
attr interpolationmode  sample-hold
attr source  transmissionStateChanged
attr title  "Radio transmission state, vector"
vector 45  recording.hostB.wlan[0].radio  receptionState:vector  ETV
attr interpolationmode  sample-hold
attr source  receptionStateChanged
attr title  "Radio reception state, vector"
vector 46  recording.hostB.wlan[0].radio  transmissionState:vector  ETV
attr interpolationmode  sample-hold
attr source  transmissionStateChanged
attr title  "Radio transmission state, vector"
vector 1  recording.hostA.udpApp[0]  sentPk:vector(packetBytes)  ETV
attr interpolationmode  none
attr source  sentPk
attr title  "packets sent, vector(packetBytes)"
vector 4  recording.hostA.udp  sentPk:vector(packetBytes)  ETV
attr interpolationmode  none
attr source  sentPk
attr title  "packets sent, vector(packetBytes)"
vector 12  recording.hostA.wlan[0].queue  rcvdPk:vector(packetBytes)  ETV
attr interpolationmode  none
attr title  "received packets, vector(packetBytes)"
vector 14  recording.hostA.wlan[0].queue  queueingTime:vector  ETV
attr interpolationmode  none
attr title  "queueing time, vector"
vector 18  recording.hostA.wlan[0].mac  rcvdPkFromHL:vector(packetBytes)  ETV
attr interpolationmode  none
attr source  packetReceivedFromUpper
attr title  "packets received from higher layer, vector(packetBytes)"
vector 17  recording.hostA.wlan[0].mac  sentDownPk:vector(packetBytes)  ETV
attr interpolationmode  none
attr source  packetSentToLower
attr title  "packets sent to lower layer, vector(packetBytes)"
vector 42  recording.hostB.wlan[0].mac  rcvdPkFromLL:vector(packetBytes)  ETV
attr interpolationmode  none
attr source  packetReceivedFromLower
attr title  "packets received from lower layer, vector(packetBytes)"
vector 39  recording.hostB.wlan[0].mac  passedUpPk:vector(packetBytes)  ETV
attr interpolationmode  none
attr source  packetSentToUpper
attr title  "packets passed to higher layer, vector(packetBytes)"
vector 28  recording.hostB.udp  rcvdPk:vector(packetBytes)  ETV
attr interpolationmode  none
attr source  rcvdPk
attr title  "packets received, vector(packetBytes)"
vector 29  recording.hostB.udp  passedUpPk:vector(count)  ETV
attr interpolationmode  none
attr title  "packets passed up, vector(count)"
vector 24  recording.hostB.udpApp[0]  rcvdPk:vector(packetBytes)  ETV
attr interpolationmode  none
attr source  rcvdPk
attr title  "packets received, vector(packetBytes)"
vector 25  recording.hostB.udpApp[0]  endToEndDelay:vector  ETV
attr interpolationmode  none
attr source  messageAge(rcvdPk)
attr title  "end-to-end delay, vector"
attr unit  s
vector 26  recording.hostB.udpApp[0]  rcvdPkSeqNo:vector  ETV
attr interpolationmode  none
attr source  appPkSeqNo(rcvdPk)
attr title  "received packet sequence number, vector"
1	10	0.022315250545	1000
1	18	0.028927832385	1000
1	38	0.041385743993	1000
1	45	0.048291974356	1000
1	67	0.07497426742	1000
1	81	0.114753214779	1000
1	88	0.120556440038	1000
1	108	0.139383193449	1000
1	122	0.148415282809	1000
1	136	0.158488477044	1000
1	151	0.189667526074	1000
1	158	0.19055175034	1000
1	162	0.191645682653	1000
1	166	0.191890789714	1000
1	189	0.213340641675	1000
1	219	0.231410052779	1000
1	235	0.255893823874	1000
1	249	0.302036486304	1000
1	263	0.321299360989	1000
1	270	0.328726514505	1000
1	290	0.346924946193	1000
1	298	0.348435439106	1000
1	311	0.360692621598	1000
1	315	0.362549377764	1000
1	347	0.3972824235	1000
1	360	0.406136351001	1000
1	367	0.412563139644	1000
1	381	0.41625050387	1000
1	402	0.434109561779	1000
1	410	0.441418550857	1000
1	429	0.451502567324	1000
1	436	0.451730190154	1000
1	451	0.463266761423	1000
1	465	0.474630721549	1000
1	485	0.486145297277	1000
1	501	0.520680277532	1000
1	514	0.534421944988	1000
1	522	0.539768166929	1000
1	535	0.54666255581	1000
1	556	0.561015849403	1000
1	563	0.561761232889	1000
1	577	0.5749481825	1000
1	598	0.588275351848	1000
1	605	0.591109832321	1000
1	609	0.592766176582	1000
1	623	0.597313720153	1000
1	627	0.602738944876	1000
1	641	0.612872078398	1000
1	655	0.619799970128	1000
1	697	0.673253932282	1000
1	704	0.67454555358	1000
1	708	0.677357171805	1000
1	712	0.67946813435	1000
1	735	0.692173046931	1000
1	739	0.69567801333	1000
1	753	0.703213312302	1000
1	766	0.706576636404	1000
1	771	0.708654165878	1000
1	775	0.710057630796	1000
1	798	0.722874497162	1000
1	803	0.724659044393	1000
1	807	0.727285611551	1000
1	821	0.732805779044	1000
1	845	0.753449758937	1000
1	849	0.754675497515	1000
1	883	0.776513324546	1000
1	887	0.77772574185	1000
1	947	0.822714119365	1000
1	955	0.830302158522	1000
1	977	0.875445285936	1000
1	990	0.886587027899	1000
1	1004	0.902717971165	1000
1	1011	0.903197686754	1000
1	1016	0.907186609646	1000
1	1020	0.90872329083	1000
1	1033	0.912937403903	1000
1	1037	0.91445406754	1000
1	1041	0.919046478926	1000
1	1055	0.925465091435	1000
1	1059	0.926260660253	1000
1	1083	0.940410934578	1000
1	1097	0.950444104962	1000
1	1111	0.954145083043	1000
1	1125	0.963034190448	1000
1	1129	0.964217994149	1000
1	1143	0.974512741842	1000
1	1187	1.006303812986	1000
1	1200	1.010906535555	1000
1	1215	1.024116686476	1000
1	1219	1.025812655039	1000
1	1243	1.04093186076	1000
1	1257	1.045031710764	1000
1	1261	1.047459916027	1000
1	1275	1.058057464531	1000
1	1279	1.058301214037	1000
1	1313	1.079490106906	1000
1	1317	1.079546585392	1000
1	1340	1.093138195096	1000
1	1345	1.096914855026	1000
1	1369	1.112859949511	1000
1	1411	1.152161667644	1000
1	1418	1.155593919314	1000
1	1431	1.165894634928	1000
1	1445	1.176653725377	1000
1	1466	1.186844375116	1000
1	1473	1.189873415031	1000
1	1495	1.226500794914	1000
1	1502	1.233612283243	1000
1	1523	1.256093801801	1000
1	1536	1.270520664608	1000
1	1544	1.274756906207	1000
1	1564	1.294927972662	1000
1	1572	1.300988197635	1000
1	1593	1.326542190388	1000
1	1606	1.336988620304	1000
1	1621	1.362606585704	1000
1	1634	1.376759180908	1000
1	1648	1.392262092134	1000
1	1662	1.400611685665	1000
1	1677	1.438117305957	1000
1	1690	1.450510870085	1000
1	1698	1.457127621967	1000
1	1717	1.468316456532	1000
1	1724	1.468549013908	1000
1	1729	1.472856140498	1000
1	1752	1.485807982882	1000
1	1757	1.489919178378	1000
1	1780	1.501467679047	1000
1	1785	1.508187211888	1000
1	1798	1.509934099629	1000
1	1803	1.514184789216	1000
1	1817	1.524311450887	1000
1	1840	1.535036199827	1000
1	1855	1.545285156655	1000
1	1869	1.55799326928	1000
1	1893	1.570663464584	1000
1	1907	1.577438790597	1000
1	1929	1.604662398509	1000
1	1936	1.610160473116	1000
1	1949	1.617030011733	1000
1	1971	1.64372898762	1000
1	1985	1.663419758555	1000
1	1998	1.678023992499	1000
1	2005	1.679291344223	1000
1	2027	1.709522729784	1000
1	2040	1.724554020083	1000
1	2055	1.805738706322	1000
1	2062	1.807681147363	1000
1	2082	1.831992053168	1000
1	2090	1.83411996007	1000
1	2103	1.845591557157	1000
1	2107	1.847177761672	1000
1	2138	1.869784908311	1000
1	2153	1.889545537527	1000
1	2166	1.899648109068	1000
1	2173	1.905922549429	1000
1	2177	1.906782654041	1000
1	2201	1.921127916836	1000
1	2215	1.928379505698	1000
1	2236	1.943743516144	1000
1	2251	1.967896788978	1000
1	2265	2.012416316081	1000
1	2279	2.035655242931	1000
1	2286	2.035796641714	1000
1	2290	2.04115167556	1000
1	2313	2.056863255928	1000
1	2317	2.059122795631	1000
1	2331	2.067956368831	1000
1	2344	2.068626809466	1000
1	2349	2.071304479963	1000
1	2353	2.071528825608	1000
1	2377	2.090469778273	1000
1	2390	2.093511846735	1000
1	2395	2.098595731951	1000
1	2439	2.130182358302	1000
1	2460	2.144807919942	1000
1	2467	2.145196201598	1000
1	2471	2.147355689697	1000
1	2485	2.159013475594	1000
1	2499	2.169344559234	1000
1	2513	2.172604576078	1000
1	2545	2.205260755149	1000
1	2558	2.21668271164	1000
1	2572	2.225887667495	1000
1	2586	2.236584210418	1000
1	2600	2.252301634874	1000
1	2608	2.256788272825	1000
1	2621	2.262882654297	1000
1	2625	2.265708949178	1000
1	2629	2.26818133376	1000
1	2670	2.302850240863	1000
1	2684	2.318994410062	1000
1	2692	2.327085344898	1000
1	2705	2.330181498065	1000
1	2709	2.333703589888	1000
1	2713	2.334420961443	1000
1	2727	2.341259732227	1000
1	2741	2.34574376976	1000
1	2755	2.360046067004	1000
1	2769	2.365739062488	1000
1	2773	2.368114675312	1000
1	2786	2.368414535552	1000
1	2790	2.369249947605	1000
1	2805	2.382900409671	1000
1	2819	2.390155384291	1000
1	2833	2.399384821904	1000
1	2876	2.426622902093	1000
1	2909	2.482298732409	1000
1	2916	2.485232624674	1000
1	2929	2.498287477877	1000
1	2943	2.501954736699	1000
1	2947	2.502205143322	1000
1	2971	2.519249744789	1000
1	2984	2.523877997118	1000
1	2989	2.529681657768	1000
1	3012	2.54033168091	1000
1	3034	2.561669400952	1000
1	3048	2.573567452467	1000
1	3063	2.598297307358	1000
1	3070	2.602132203216	1000
1	3090	2.621328836518	1000
1	3097	2.623793009743	1000
1	3119	2.660431225778	1000
1	3132	2.674388585179	1000
1	3139	2.677301207103	1000
1	3161	2.712634970432	1000
1	3174	2.728385066348	1000
1	3182	2.73190048385	1000
1	3186	2.734779566083	1000
1	3199	2.743542298066	1000
1	3203	2.743854271008	1000
1	3217	2.746644571229	1000
1	3230	2.753278631677	1000
1	3235	2.758902749389	1000
1	3249	2.766376701106	1000
1	3262	2.770279293322	1000
1	3277	2.780884721194	1000
1	3311	2.804813191609	1000
1	3315	2.806313582688	1000
1	3329	2.815055868801	1000
1	3333	2.816755573219	1000
1	3357	2.831897325301	1000
1	3371	2.8379486845	1000
1	3385	2.847949223388	1000
1	3389	2.850378728552	1000
1	3402	2.852256437797	1000
1	3416	2.860290924887	1000
1	3421	2.865564389573	1000
1	3465	2.899412020954	1000
1	3489	2.916806678271	1000
1	3510	2.933378235419	1000
1	3525	2.961464138947	1000
1	3532	2.962509441946	1000
1	3545	2.972150143098	1000
1	3559	2.982688724043	1000
1	3581	3.021910680853	1000
1	3588	3.026056915858	1000
1	3592	3.029363251102	1000
1	3605	3.030631497191	1000
1	3609	3.030830290324	1000
1	3643	3.06266099251	1000
1	3664	3.075961909561	1000
1	3679	3.094415854135	1000
1	3686	3.098386772709	1000
1	3699	3.108981339248	1000
1	3703	3.109774443376	1000
1	3717	3.117752136371	1000
1	3749	3.163280421768	1000
1	3763	3.188379100639	1000
1	3770	3.19333185904	1000
1	3791	3.232438910766	1000
1	3798	3.23560183612	1000
1	3819	3.271388244226	1000
1	3833	3.305427926547	1000
1	3847	3.324693431704	1000
1	3860	3.336638995424	1000
1	3875	3.361524132981	1000
1	3882	3.365685172626	1000
1	3903	3.388366393003	1000
1	3916	3.399910536122	1000
1	3923	3.40007043906	1000
1	3927	3.405188868804	1000
1	3932	3.407112877938	1000
1	3973	3.455208273796	1000
1	3980	3.463017841904	1000
1	3993	3.471273163646	1000
1	4014	3.483515408701	1000
1	4021	3.489032904514	1000
1	4026	3.490799604962	1000
1	4056	3.511519205519	1000
1	4063	3.514045604977	1000
1	4077	3.522638148793	1000
1	4081	3.525686285333	1000
1	4085	3.526921905698	1000
1	4119	3.550704589791	1000
1	4141	3.594011881851	1000
1	4155	3.632891437454	1000
1	4169	3.661336088421	1000
1	4182	3.679185245473	1000
1	4190	3.684047440061	1000
1	4194	3.685062393962	1000
1	4207	3.691338005806	1000
1	4211	3.694509251376	1000
1	4224	3.696214757513	1000
1	4228	3.696873645984	1000
1	4252	3.71239142029	1000
1	4256	3.712529339293	1000
1	4280	3.730195789189	1000
1	4285	3.732102987345	1000
1	4289	3.73309733462	1000
1	4293	3.734223829187	1000
1	4317	3.74760247825	1000
1	4321	3.75098076652	1000
1	4335	3.757528659097	1000
1	4349	3.767308879068	1000
1	4383	3.790949569855	1000
1	4407	3.806530917482	1000
1	4411	3.810312837827	1000
1	4424	3.81200445244	1000
1	4429	3.81268805083	1000
1	4433	3.816995586651	1000
1	4446	3.820643245362	1000
1	4460	3.827952018826	1000
1	4475	3.841748915479	1000
1	4499	3.856022870495	1000
1	4503	3.860023710556	1000
1	4517	3.865758726406	1000
1	4521	3.868156992861	1000
1	4555	3.886801938885	1000
1	4559	3.887504273672	1000
1	4582	3.901832434119	1000
1	4607	3.919931016899	1000
1	4631	3.937959970424	1000
1	4635	3.941563871387	1000
1	4649	3.947181148826	1000
1	4663	3.957810276578	1000
1	4677	3.961633282753	1000
1	4690	3.967193963083	1000
1	4695	3.969827581014	1000
1	4709	3.977218612419	1000
1	4713	3.977766269013	1000
1	4737	3.997067283202	1000
1	4741	3.998028229473	1000
1	4755	4.006806773543	1000
1	4769	4.011204189045	1000
1	4783	4.021544198947	1000
1	4837	4.060001904902	1000
1	4851	4.072448846031	1000
1	4855	4.072880879988	1000
1	4869	4.07963478241	1000
1	4883	4.088195393804	1000
1	4897	4.097414433906	1000
1	4921	4.111139978455	1000
1	4925	4.115042028901	1000
1	4938	4.116697467684	1000
1	4943	4.122681775678	1000
1	4994	4.160275729553	1000
1	5001	4.16276195174	1000
1	5023	4.190880830901	1000
1	5036	4.200298875136	1000
1	5043	4.207624669276	1000
1	5065	4.233273729561	1000
1	5072	4.240636980078	1000
1	5092	4.256092523779	1000
1	5100	4.262202953621	1000
1	5121	4.290329389311	1000
1	5134	4.30438455365	1000
1	5148	4.318817119056	1000
1	5156	4.323582090456	1000
1	5176	4.34054749041	1000
1	5190	4.352676720367	1000
1	5197	4.355970282631	1000
1	5201	4.35807022321	1000
1	5225	4.377168896684	1000
1	5247	4.415547956405	1000
1	5254	4.422900901743	1000
1	5273	4.433628918575	1000
1	5289	4.457028641517	1000
1	5296	4.464361332252	1000
1	5317	4.500768643121	1000
1	5330	4.511057864352	1000
1	5345	4.531686696093	1000
1	5359	4.560428853566	1000
1	5373	4.580711673023	1000
1	5380	4.582795551782	1000
1	5393	4.594690905851	1000
1	5407	4.6007895393	1000
1	5411	4.601566727613	1000
1	5425	4.608187170964	1000
1	5429	4.611779111553	1000
1	5463	4.634467861406	1000
1	5467	4.634874323669	1000
1	5499	4.673199466141	1000
1	5506	4.678468389968	1000
1	5519	4.683762247697	1000
1	5523	4.683959807105	1000
1	5527	4.686418034311	1000
1	5541	4.692573158213	1000
1	5582	4.72436341736	1000
1	5589	4.725622610328	1000
1	5611	4.760493645572	1000
1	5625	4.784929175819	1000
1	5632	4.792194381199	1000
1	5645	4.796941168404	1000
1	5649	4.800120387656	1000
1	5673	4.811557858115	1000
1	5677	4.811961465166	1000
1	5681	4.812150214651	1000
1	5694	4.818870315131	1000
1	5699	4.819716338511	1000
1	5703	4.823199619492	1000
1	5716	4.826199029292	1000
1	5721	4.829702382153	1000
1	5725	4.831388090756	1000
1	5729	4.831533401697	1000
1	5733	4.833005981785	1000
1	5757	4.84456909414	1000
1	5811	4.888483839562	1000
1	5863	4.944167199513	1000
1	5870	4.950479569062	1000
1	5883	4.952614090156	1000
1	5897	4.964832701102	1000
1	5911	4.972920022433	1000
1	5933	5.027493908655	1000
1	5940	5.028304318538	1000
1	5960	5.046651584987	1000
1	5967	5.050734431622	1000
1	5972	5.054050093937	1000
1	5995	5.067084533671	1000
1	5999	5.070473894215	1000
1	6023	5.083628204947	1000
1	6037	5.092368735823	1000
1	6051	5.098990361283	1000
1	6065	5.108698117625	1000
1	6078	5.112758271049	1000
1	6093	5.127471857596	1000
1	6107	5.13390264314	1000
1	6121	5.139268321971	1000
1	6142	5.160437370677	1000
1	6157	5.191515284423	1000
1	6164	5.192080475676	1000
1	6168	5.195257862956	1000
1	6181	5.200399954206	1000
1	6205	5.220646573671	1000
1	6227	5.271442763227	1000
1	6241	5.313117031698	1000
1	6255	5.341357048915	1000
1	6262	5.34557825754	1000
1	6283	5.403534900516	1000
1	6290	5.406977809661	1000
1	6294	5.408321144155	1000
1	6325	5.444500763421	1000
1	6332	5.447690562009	1000
1	6351	5.461735790769	1000
1	6358	5.462457331199	1000
1	6379	5.478200888172	1000
1	6395	5.503817316906	1000
1	6402	5.507633971448	1000
1	6415	5.5133521613	1000
1	6419	5.518978699168	1000
1	6443	5.535556208126	1000
1	6457	5.538814877626	1000
1	6461	5.541077654317	1000
1	6475	5.54823625332	1000
1	6479	5.552593199402	1000
1	6513	5.574523514616	1000
1	6517	5.577781154213	1000
1	6540	5.586156404799	1000
1	6563	5.620445508973	1000
1	6576	5.632506896756	1000
1	6591	5.656741910795	1000
1	6605	5.690544851555	1000
1	6618	5.707217153638	1000
1	6632	5.721647841775	1000
1	6647	5.762939170346	1000
1	6661	5.825160723422	1000
1	6668	5.832374579179	1000
1	6672	5.833256655708	1000
1	6685	5.837413855638	1000
1	6689	5.839397371786	1000
1	6703	5.845882204157	1000
1	6707	5.847571146022	1000
1	6730	5.858690809226	1000
1	6735	5.864481711808	1000
1	6778	5.891571433297	1000
1	6801	5.932798914007	1000
1	6814	5.942298223142	1000
1	6821	5.946154306776	1000
1	6835	5.956918942945	1000
1	6857	5.984167464234	1000
1	6864	5.990432799887	1000
1	6877	6.00007044115	1000
1	6891	6.003874169709	1000
1	6905	6.011167586878	1000
1	6918	6.017331814237	1000
1	6923	6.020758641283	1000
1	6937	6.02921803314	1000
1	6950	6.033677422198	1000
1	6955	6.039279794321	1000
1	6969	6.048212333458	1000
1	6993	6.064876460744	1000
1	7007	6.06974517687	1000
1	7038	6.100694534439	1000
1	7053	6.124488285402	1000
1	7060	6.125087272631	1000
1	7064	6.128597879845	1000
1	7077	6.13568790249	1000
1	7081	6.137014093009	1000
1	7094	6.142155385354	1000
1	7118	6.158324771238	1000
1	7133	6.172017291249	1000
1	7156	6.183703834347	1000
1	7177	6.198580211314	1000
1	7185	6.201332017374	1000
1	7189	6.206349117281	1000
1	7213	6.219882242484	1000
1	7235	6.24524912426	1000
1	7248	6.254663804623	1000
1	7255	6.258650932106	1000
1	7259	6.259019353382	1000
1	7283	6.273887791471	1000
1	7287	6.273982775629	1000
1	7300	6.279578339946	1000
1	7314	6.288652334919	1000
1	7346	6.319282052842	1000
1	7353	6.320407117493	1000
1	7358	6.326656463871	1000
1	7362	6.3269518276	1000
1	7375	6.331985579482	1000
1	7389	6.343667250006	1000
1	7403	6.347593774582	1000
1	7407	6.35041864498	1000
1	7411	6.351894195783	1000
1	7435	6.362222772273	1000
1	7449	6.376482722196	1000
1	7473	6.389858054232	1000
1	7514	6.425536554306	1000
1	7521	6.425569036801	1000
1	7535	6.438071170379	1000
1	7549	6.449078431942	1000
1	7569	6.45974077649	1000
1	7585	6.499228562453	1000
1	7592	6.499432749938	1000
1	7605	6.513740539229	1000
1	7626	6.53390392803	1000
1	7640	6.54245940578	1000
1	7647	6.547336360181	1000
1	7668	6.566112238789	1000
1	7675	6.567339860161	1000
1	7689	6.574341382229	1000
1	7702	6.583147821833	1000
1	7717	6.597356154669	1000
1	7721	6.598499568463	1000
1	7735	6.601601079448	1000
1	7748	6.607938807337	1000
1	7763	6.619654311613	1000
1	7794	6.645814556979	1000
1	7808	6.65738855412	1000
1	7815	6.659107538565	1000
1	7837	6.706405042781	1000
1	7851	6.731053672587	1000
1	7864	6.73943691539	1000
1	7879	6.77010312799	1000
1	7892	6.779457548336	1000
1	7907	6.81027273988	1000
1	7921	6.831528979712	1000
1	7935	6.872941101264	1000
1	7949	6.9032173108	1000
1	7956	6.903657699643	1000
1	7960	6.905962846557	1000
1	7973	6.911877391777	1000
1	8005	6.948351770859	1000
1	8012	6.952632365891	1000
1	8016	6.954731289012	1000
1	8046	6.980822083898	1000
1	8054	6.987917717325	1000
1	8075	7.016533101444	1000
1	8082	7.018628635002	1000
1	8095	7.031613857616	1000
1	8109	7.038577332672	1000
1	8113	7.039532174533	1000
1	8137	7.053839201438	1000
1	8141	7.05724983836	1000
1	8154	7.057734897292	1000
1	8158	7.058476691076	1000
1	8162	7.059232972407	1000
1	8197	7.087829791685	1000
1	8221	7.103989319147	1000
1	8243	7.13139004756	1000
1	8256	7.144788270443	1000
1	8270	7.153821506267	1000
1	8277	7.15817807212	1000
1	8299	7.232528993545	1000
1	8306	7.23792555396	1000
1	8319	7.245558795412	1000
1	8333	7.251261308677	1000
1	8355	7.29792504535	1000
1	8362	7.300228540173	1000
1	8366	7.304998289132	1000
1	8389	7.318684582832	1000
1	8393	7.31946810598	1000
1	8407	7.330683070976	1000
1	8421	7.338475999698	1000
1	8435	7.342484900695	1000
1	8439	7.345753115411	1000
1	8453	7.354424342261	1000
1	8467	7.359929357893	1000
1	8481	7.367246503967	1000
1	8494	7.372186910901	1000
1	8536	7.414464726996	1000
1	8544	7.416183406254	1000
1	8548	7.417405193958	1000
1	8552	7.422453206027	1000
1	8575	7.433182476685	1000
1	8589	7.446099162198	1000
1	8603	7.452174329803	1000
1	8635	7.538975951237	1000
1	8642	7.544180344882	1000
1	8662	7.559516370432	1000
1	8676	7.571695877932	1000
1	8691	7.591819094728	1000
1	8705	7.636688876464	1000
1	8719	7.66315368611	1000
1	8732	7.680509376976	1000
1	8746	7.69488719363	1000
1	8754	7.699791805481	1000
1	8758	7.701709402846	1000
1	8762	7.702485606108	1000
1	8775	7.705808912812	1000
1	8788	7.712602467432	1000
1	8803	7.721460108343	1000
1	8827	7.739258189239	1000
1	8859	7.777512799306	1000
1	8866	7.779010316413	1000
1	8870	7.780368396402	1000
1	8883	7.791058642025	1000
1	8907	7.807475290282	1000
1	8929	7.830093665652	1000
1	8943	7.863048688095	1000
1	8957	7.912247899607	1000
1	8964	7.918373841559	1000
1	8977	7.924116760412	1000
1	8981	7.926036090972	1000
1	9005	7.939895785375	1000
1	9019	7.952727758075	1000
1	9041	7.976499221628	1000
1	9048	7.977727043383	1000
1	9061	7.98599157351	1000
1	9075	7.996432532434	1000
1	9079	7.999750384643	1000
1	9092	8.001972257285	1000
1	9117	8.02552973676	1000
1	9130	8.026253553045	1000
1	9135	8.033886158698	1000
1	9148	8.035363484157	1000
1	9162	8.042692534255	1000
1	9195	8.089614223491	1000
1	9202	8.096227878871	1000
1	9223	8.119577293878	1000
1	9230	8.121074744146	1000
1	9234	8.12487187284	1000
1	9247	8.131077875965	1000
1	9260	8.137204026876	1000
1	9275	8.150558392615	1000
1	9289	8.155630670072	1000
1	9312	8.170642054	1000
1	9327	8.182874796257	1000
1	9341	8.18898793838	1000
1	9355	8.195770477998	1000
1	9369	8.207209909173	1000
1	9373	8.20808130187	1000
1	9404	8.228820414346	1000
1	9418	8.241536153665	1000
1	9432	8.257086687463	1000
1	9446	8.266325030693	1000
1	9453	8.267729871165	1000
1	9457	8.273960915864	1000
1	9471	8.280198779203	1000
1	9485	8.28484514881	1000
1	9489	8.285210044735	1000
1	9513	8.301248865743	1000
1	9517	8.302644365744	1000
1	9531	8.313830606631	1000
1	9555	8.328407675134	1000
1	9578	8.340494947395	1000
1	9601	8.378866852484	1000
1	9608	8.380175234847	1000
1	9628	8.404399199966	1000
1	9635	8.404754696994	1000
1	9649	8.413941165981	1000
1	9653	8.420156247322	1000
1	9667	8.429068932318	1000
1	9681	8.434520383243	1000
1	9685	8.437057437343	1000
1	9689	8.437289134605	1000
1	9712	8.446050598848	1000
1	9737	8.468251669486	1000
1	9751	8.473857508204	1000
1	9755	8.476883184321	1000
1	9759	8.477890704801	1000
1	9772	8.478960757788	1000
1	9777	8.481963797153	1000
1	9781	8.483228310841	1000
1	9794	8.486923576388	1000
1	9798	8.487744842893	1000
1	9803	8.48855911343	1000
1	9836	8.511837454545	1000
1	9841	8.513960023018	1000
1	9855	8.523803130929	1000
1	9879	8.541620899818	1000
1	9893	8.548935609988	1000
1	9897	8.550933492315	1000
1	9910	8.553605158539	1000
1	9915	8.560413575975	1000
1	9938	8.569428844459	1000
1	9943	8.574587910892	1000
1	9967	8.592838421784	1000
1	9991	8.609523093711	1000
1	10035	8.640965512634	1000
1	10039	8.641318072001	1000
1	10082	8.66844287737	1000
1	10087	8.674425073353	1000
1	10118	8.699706578864	1000
1	10132	8.713791191598	1000
1	10147	8.766231188615	1000
1	10160	8.783320760803	1000
1	10168	8.788761721823	1000
1	10181	8.797105031195	1000
1	10195	8.802771776179	1000
1	10208	8.80821967354	1000
1	10213	8.811847611197	1000
1	10227	8.820069052132	1000
1	10250	8.833807689526	1000
1	10255	8.837705491182	1000
1	10269	8.846623119034	1000
1	10273	8.848121449328	1000
1	10286	8.850211479981	1000
1	10290	8.850786726376	1000
1	10342	8.893161623182	1000
1	10349	8.89320803706	1000
1	10353	8.895568685324	1000
1	10367	8.906956521485	1000
1	10371	8.907974978417	1000
1	10405	8.933609305533	1000
1	10426	8.948868625561	1000
1	10441	8.989583794137	1000
1	10454	8.998086227042	1000
1	10461	9.002373248585	1000
1	10475	9.011942030295	1000
1	10497	9.043994329977	1000
1	10510	9.052821011036	1000
1	10517	9.056551715793	1000
1	10539	9.081737536936	1000
1	10546	9.087318565861	1000
1	10550	9.087335177612	1000
1	10563	9.09075037982	1000
1	10567	9.095347196625	1000
1	10601	9.118836217332	1000
1	10615	9.126197234125	1000
1	10629	9.133253759865	1000
1	10633	9.138169285786	1000
1	10664	9.163680452625	1000
1	10679	9.198491361119	1000
1	10693	9.256267737116	1000
1	10700	9.261941259653	1000
1	10721	9.302570150488	1000
1	10735	9.321405810743	1000
1	10748	9.334918444315	1000
1	10755	9.338289138181	1000
1	10760	9.341216294219	1000
1	10773	9.343395244831	1000
1	10804	9.374124771808	1000
1	10812	9.378303755418	1000
1	10825	9.385545500927	1000
1	10839	9.393719124264	1000
1	10860	9.411789337981	1000
1	10875	9.43410221685	1000
1	10882	9.435899159349	1000
1	10895	9.442579591318	1000
1	10916	9.464786619077	1000
1	10931	9.48523379833	1000
1	10938	9.486530351132	1000
1	10942	9.488571036198	1000
1	10946	9.492923329832	1000
1	10959	9.493863527445	1000
1	10963	9.500497119447	1000
1	10976	9.501863447335	1000
1	10991	9.511941449352	1000
1	10995	9.5153386713	1000
1	11009	9.526227626339	1000
1	11022	9.527727932925	1000
1	11077	9.572426425414	1000
1	11099	9.604784843661	1000
1	11106	9.610751801299	1000
1	11119	9.614079491646	1000
1	11123	9.617538049661	1000
1	11137	9.625463736392	1000
1	11141	9.625953510396	1000
1	11164	9.638203499425	1000
1	11169	9.644500624754	1000
1	11183	9.650186963702	1000
1	11207	9.67007569795	1000
1	11231	9.684890344387	1000
1	11253	9.721927110054	1000
1	11260	9.727132304328	1000
1	11281	9.754472021242	1000
1	11294	9.772106421032	1000
1	11302	9.7774136753	1000
1	11321	9.789077392017	1000
1	11329	9.793163130315	1000
1	11351	9.818058958904	1000
1	11358	9.819490137344	1000
1	11362	9.822355840057	1000
1	11366	9.824781723292	1000
1	11379	9.830972303962	1000
1	11403	9.84738117259	1000
1	11417	9.856362743409	1000
1	11431	9.864388327619	1000
1	11435	9.864394881059	1000
1	11449	9.871043890797	1000
1	11453	9.871831849019	1000
1	11457	9.874634013491	1000
1	11501	9.906962705711	1000
1	11514	9.909873653218	1000
1	11545	9.933325358478	1000
1	11561	9.952813483804	1000
1	11568	9.954893534059	1000
1	11581	9.966061616738	1000
1	11585	9.967536606196	1000
1	11609	9.983155111497	1000
1	11629	9.995330632548	1000
1	11645	10.01538247145	1000
1	11652	10.023215394897	1000
1	11673	10.052777330447	1000
1	11680	10.053384628959	1000
1	11684	10.057543433069	1000
1	11707	10.072608841127	1000
1	11720	10.079106511051	1000
1	11725	10.081385212141	1000
1	11729	10.082746068807	1000
1	11762	10.103147555958	1000
1	11776	10.110837468816	1000
1	11798	10.136511199092	1000
1	11812	10.152370280366	1000
1	11820	10.158696305842	1000
1	11833	10.164307794769	1000
1	11847	10.173006876005	1000
1	11869	10.199392059481	1000
1	11882	10.215431991946	1000
1	11889	10.215493987379	1000
1	11903	10.229710221187	1000
1	11925	10.259945303094	1000
1	11938	10.274818668999	1000
1	11945	10.277156342157	1000
1	11959	10.285084923278	1000
1	11963	10.286899208395	1000
1	11976	10.292235829854	1000
1	12008	10.325433591871	1000
1	12023	10.356248664508	1000
1	12030	10.360238087567	1000
1	12043	10.36521756656	1000
1	12057	10.376219443008	1000
1	12079	10.415845650437	1000
1	12086	10.417764877683	1000
1	12090	10.421328242388	1000
1	12120	10.44614379017	1000
1	12128	10.454268530718	1000
1	12149	10.481775526228	1000
1	12156	10.484237960048	1000
1	12169	10.49336655927	1000
1	12173	10.498105662775	1000
1	12187	10.502672753567	1000
1	12201	10.509778851215	1000
1	12215	10.516589242221	1000
1	12219	10.521895044284	1000
1	12260	10.551472165921	1000
1	12274	10.567261936702	1000
1	12288	10.582865406406	1000
1	12296	10.58697382736	1000
1	12309	10.597318566888	1000
1	12330	10.615443424712	1000
1	12345	10.634494976163	1000
1	12352	10.639563817556	1000
1	12372	10.657245550876	1000
1	12386	10.673222403081	1000
1	12393	10.675053316859	1000
1	12414	10.699167420259	1000
1	12422	10.706153592897	1000
1	12435	10.714149563409	1000
1	12449	10.72128807848	1000
1	12463	10.731355757875	1000
1	12484	10.743003746849	1000
1	12498	10.751277901912	1000
1	12513	10.775467711484	1000
1	12526	10.787325495322	1000
1	12533	10.793483995897	1000
1	12547	10.799952469999	1000
1	12568	10.819934326728	1000
1	12576	10.825070388534	1000
1	12580	10.827921175049	1000
1	12593	10.828655808234	1000
1	12623	10.853708091392	1000
1	12639	10.883800759415	1000
1	12646	10.885336398753	1000
1	12650	10.890222524919	1000
1	12663	10.892536400785	1000
1	12667	10.894014601252	1000
1	12701	10.921629641644	1000
1	12705	10.922332347824	1000
1	12737	10.969571621382	1000
1	12744	10.970788718783	1000
1	12764	10.994683306469	1000
1	12778	11.004713837279	1000
1	12785	11.010218661375	1000
1	12799	11.015247511018	1000
1	12820	11.032241832784	1000
1	12827	11.03677439725	1000
1	12847	11.049625857806	1000
1	12861	11.058366825511	1000
1	12869	11.06632908573	1000
1	12891	11.094100384513	1000
1	12904	11.103806988776	1000
1	12919	11.124850956984	1000
1	12932	11.140367820239	1000
1	12939	11.140839663238	1000
1	12960	11.158639145618	1000
1	12967	11.161572628329	1000
1	12989	11.189587686994	1000
1	12996	11.190114159129	1000
1	13000	11.194975037879	1000
1	13004	11.196235803874	1000
1	13017	11.203981561126	1000
1	13051	11.224560638375	1000
1	13055	11.228809703976	1000
1	13068	11.230773136938	1000
1	13073	11.235583651502	1000
1	13106	11.255760024245	1000
1	13111	11.257575257586	1000
1	13115	11.260670600337	1000
1	13119	11.261526644414	1000
1	13143	11.276204921301	1000
1	13157	11.282239870301	1000
1	13161	11.286707251699	1000
1	13185	11.301924114785	1000
1	13199	11.306837386537	1000
1	13222	11.322450738191	1000
1	13247	11.342712472127	1000
1	13251	11.345658105913	1000
1	13283	11.389370622169	1000
1	13290	11.3914965951	1000
1	13294	11.39562069972	1000
1	13307	11.397999115567	1000
1	13311	11.403085823651	1000
1	13325	11.410934346401	1000
1	13339	11.419796496845	1000
1	13373	11.442853944077	1000
1	13395	11.469281165422	1000
1	13402	11.472264299713	1000
1	13415	11.483967048222	1000
1	13419	11.485385642562	1000
1	13433	11.492757005905	1000
1	13447	11.497426206606	1000
1	13451	11.501992563127	1000
1	13465	11.509899465689	1000
1	13489	11.525603807606	1000
1	13493	11.526464114223	1000
1	13533	11.551824893634	1000
1	13548	11.567752769304	1000
1	13556	11.570083061049	1000
1	13577	11.603677334271	1000
1	13590	11.612147558212	1000
1	13605	11.714879777324	1000
1	13612	11.71751646227	1000
1	13625	11.726702707956	1000
1	13629	11.730816784666	1000
1	13643	11.735168644822	1000
1	13657	11.745899044705	1000
1	13689	11.776468459716	1000
1	13703	11.796101776603	1000
1	13716	11.811547481873	1000
1	13730	11.821376736394	1000
1	13745	11.852035305871	1000
1	13752	11.860171132132	1000
1	13773	11.88501284019	1000
1	13787	11.906560723456	1000
1	13794	11.909447791789	1000
1	13814	11.927148011564	1000
1	13821	11.92729496163	1000
1	13825	11.931972948588	1000
1	13830	11.935102586463	1000
1	13843	11.943586204432	1000
1	13867	11.959606721444	1000
1	13880	11.960840105828	1000
1	13894	11.969521457829	1000
1	13927	12.002968921421	1000
1	13934	12.006084224377	1000
1	13953	12.019650704739	1000
1	13968	12.030434480195	1000
1	13975	12.030555856302	1000
1	13980	12.038307039745	1000
1	14003	12.053110759076	1000
1	14007	12.053650419091	1000
1	14038	12.079045825267	1000
1	14052	12.087855491063	1000
1	14059	12.088229182264	1000
1	14063	12.091278813218	1000
1	14095	12.128143876901	1000
1	14108	12.138620345522	1000
1	14115	12.139984721863	1000
1	14119	12.144053175795	1000
1	14133	12.151374379421	1000
1	14137	12.151628451003	1000
1	14151	12.157992946981	1000
1	14165	12.166060350321	1000
1	14169	12.169411805145	1000
1	14192	12.180071214371	1000
1	14216	12.19686328912	1000
1	14221	12.20009093546	1000
1	14235	12.211717740295	1000
1	14259	12.223964970111	1000
1	14291	12.259568446036	1000
1	14304	12.277644317983	1000
1	14319	12.300278103906	1000
1	14326	12.30836812266	1000
1	14339	12.310828062349	1000
1	14361	12.376543888566	1000
1	14368	12.378206150671	1000
1	14381	12.385857731302	1000
1	14385	12.386703999677	1000
1	14417	12.421260925053	1000
1	14431	12.461464106321	1000
1	14444	12.476713539754	1000
1	14452	12.481882802711	1000
1	14465	12.485405311551	1000
1	14469	12.489104882166	1000
1	14473	12.490738761046	1000
1	14487	12.49969250101	1000
1	14500	12.501527759851	1000
1	14505	12.506098153703	1000
1	14528	12.517922836638	1000
1	14543	12.533526157391	1000
1	14547	12.53382102314	1000
1	14561	12.54056889224	1000
1	14585	12.553239823032	1000
1	14618	12.576267792128	1000
1	14632	12.58400750218	1000
1	14655	12.625772679224	1000
1	14662	12.629477628439	1000
1	14666	12.629640837751	1000
1	14679	12.63757487396	1000
1	14683	12.641125280446	1000
1	14717	12.66195330184	1000
1	14721	12.665132967469	1000
1	14735	12.66959667957	1000
1	14759	12.688394797232	1000
1	14780	12.703464023574	1000
1	14794	12.713262759547	1000
1	14808	12.727910006009	1000
1	14816	12.734418562334	1000
1	14820	12.734482452715	1000
1	14824	12.734619493754	1000
1	14837	12.743209651122	1000
1	14841	12.744253233254	1000
1	14854	12.74488234548	1000
1	14899	12.785289685226	1000
1	14921	12.808797854672	1000
1	14928	12.810776735743	1000
1	14932	12.810784708978	1000
1	14963	12.844883920448	1000
1	14970	12.848798090018	1000
1	14974	12.851266119458	1000
1	14997	12.865378836185	1000
1	15001	12.866762470071	1000
1	15014	12.870451367873	1000
1	15047	12.914763452528	1000
1	15060	12.927005373264	1000
1	15074	12.935829960173	1000
1	15081	12.941918312046	1000
1	15102	12.959791584487	1000
1	15109	12.96161482679	1000
1	15131	13.002673267744	1000
1	15145	13.026363268028	1000
1	15158	13.037900513299	1000
1	15165	13.038426759759	1000
1	15179	13.052908708014	1000
1	15201	13.082250158114	1000
1	15214	13.091172763962	1000
1	15221	13.096420410234	1000
1	15225	13.097958193265	1000
1	15249	13.11483131547	1000
1	15271	13.140787473859	1000
1	15278	13.142055157166	1000
1	15298	13.159129888304	1000
1	15305	13.159336380622	1000
1	15327	13.200291339774	1000
1	15340	13.211747291793	1000
1	15354	13.221394602606	1000
1	15361	13.225605470666	1000
1	15383	13.257395773752	1000
1	15390	13.261105186034	1000
1	15410	13.282238548558	1000
1	15425	13.332722268001	1000
1	15439	13.351078517217	1000
1	15452	13.359860921691	1000
1	15459	13.36068122195	1000
1	15472	13.368354537871	1000
1	15477	13.375275045332	1000
1	15490	13.377994781953	1000
1	15504	13.384605965648	1000
1	15509	13.389919444713	1000
1	15513	13.392064433354	1000
1	15527	13.399051737328	1000
1	15540	13.40271048926	1000
1	15555	13.411569790807	1000
1	15559	13.411999307508	1000
1	15593	13.440402413186	1000
1	15627	13.460740030281	1000
1	15641	13.470391156255	1000
1	15663	13.493302162134	1000
1	15677	13.532669604283	1000
1	15684	13.534075054352	1000
1	15697	13.546033089637	1000
1	15719	13.620572462154	1000
1	15733	13.673536323404	1000
1	15746	13.684631918441	1000
1	15753	13.68627579594	1000
1	15767	13.696777374967	1000
1	15771	13.696802176157	1000
1	15775	13.699463579949	1000
1	15817	13.736980003678	1000
1	15824	13.741793627873	1000
1	15843	13.753999899386	1000
1	15851	13.757956281625	1000
1	15873	13.793393387364	1000
1	15886	13.80904150128	1000
1	15894	13.813840985765	1000
1	15914	13.832669835932	1000
1	15921	13.834043532685	1000
1	15926	13.840020793905	1000
1	15939	13.843021085332	1000
1	15953	13.856834858502	1000
1	15966	13.858131846189	1000
1	15971	13.864202417358	1000
1	15985	13.868088757846	1000
1	15999	13.876559727932	1000
1	16003	13.881727234005	1000
1	16027	13.896434110028	1000
1	16031	13.896732719008	1000
1	16055	13.908793753682	1000
1	16059	13.911939037304	1000
1	16072	13.915694363548	1000
1	16097	13.935022964173	1000
1	16138	13.972388614115	1000
1	16146	13.976955839051	1000
1	16166	13.9979959035	1000
1	16174	13.999313559264	1000
1	16187	14.0113744213	1000
1	16208	14.028059606374	1000
1	16215	14.030094526055	1000
1	16229	14.036756086597	1000
1	16251	14.063542407908	1000
1	16258	14.06485454207	1000
1	16262	14.065073687264	1000
1	16275	14.075790009939	1000
1	16289	14.082652459119	1000
1	16313	14.101887325569	1000
1	16335	14.132725928241	1000
1	16342	14.136991527442	1000
1	16355	14.142891729984	1000
1	16368	14.150884468007	1000
1	16383	14.161529663316	1000
1	16405	14.211042529821	1000
1	16418	14.225383885758	1000
1	16426	14.231306563022	1000
1	16439	14.234981077829	1000
1	16461	14.269704757488	1000
1	16468	14.271452677466	1000
1	16487	14.286739664877	1000
1	16503	14.317886242149	1000
1	16516	14.330997766101	1000
1	16524	14.33759785447	1000
1	16537	14.340260450687	1000
1	16541	14.345756883219	1000
1	16565	14.36048262631	1000
1	16585	14.37306453292	1000
1	16601	14.404633630914	1000
1	16615	14.428829961941	1000
1	16629	14.449153631888	1000
1	16643	14.478244004937	1000
1	16650	14.482125161042	1000
1	16663	14.487660514597	1000
1	16667	14.49339489087	1000
1	16690	14.503258952558	1000
1	16705	14.516498286616	1000
1	16718	14.520552805539	1000
1	16722	14.520788657825	1000
1	16727	14.526903023073	1000
1	16741	14.53133021373	1000
1	16782	14.565536240248	1000
1	16797	14.591835748037	1000
1	16811	14.615455761319	1000
1	16824	14.62815691902	1000
1	16831	14.633221343666	1000
1	16845	14.642772788894	1000
1	16867	14.663036188375	1000
1	16874	14.664282000412	1000
1	16894	14.683659921946	1000
1	16901	14.684164542391	1000
1	16922	14.704505866641	1000
1	16937	14.724281754274	1000
1	16944	14.724910004519	1000
1	16957	14.736749298234	1000
1	16971	14.745126083215	1000
1	16975	14.747359428789	1000
1	16988	14.749286792084	1000
1	17012	14.767094161688	1000
1	17027	14.777157586137	1000
1	17049	14.826051481114	1000
1	17063	14.874426418201	1000
1	17077	14.933410852154	1000
1	17084	14.93492598812	1000
1	17105	14.968343115546	1000
1	17112	14.971708727196	1000
1	17125	14.979063298903	1000
1	17146	14.996059718828	1000
1	17153	14.998791878654	1000
1	17167	15.008817026624	1000
1	17171	15.01128386433	1000
1	17184	15.012611505402	1000
1	17188	15.014098669406	1000
1	17193	15.019409927896	1000
1	17197	15.019465916309	1000
1	17211	15.026103490962	1000
1	17235	15.039198261961	1000
1	17239	15.045361980792	1000
1	17252	15.046438380913	1000
1	17257	15.047215260849	1000
1	17261	15.051125959234	1000
1	17265	15.053351981238	1000
1	17319	15.093613474793	1000
1	17332	15.095581082454	1000
1	17357	15.115226642772	1000
1	17371	15.125812443664	1000
1	17394	15.13592020108	1000
1	17408	15.144531464558	1000
1	17441	15.187336962119	1000
1	17448	15.192764714407	1000
1	17468	15.211373974548	1000
1	17482	15.221098080162	1000
1	17489	15.227140977156	1000
1	17511	15.264478986848	1000
1	17524	15.275424060887	1000
1	17531	15.276943301454	1000
1	17536	15.283429222158	1000
1	17565	15.301685342539	1000
1	17580	15.3158854682	1000
1	17595	15.345657447512	1000
1	17602	15.349260616464	1000
1	17622	15.366296036474	1000
1	17630	15.373687497216	1000
1	17649	15.38391630028	1000
1	17665	15.42114186717	1000
1	17679	15.467665394412	1000
1	17693	15.49139589768	1000
1	17700	15.49673442526	1000
1	17721	15.522973491593	1000
1	17734	15.535187035036	1000
1	17742	15.541932394179	1000
1	17746	15.542369159258	1000
1	17775	15.560011957597	1000
1	17789	15.568380364481	1000
1	17805	15.586892290518	1000
1	17818	15.603433290461	1000
1	17833	15.622366664431	1000
1	17840	15.626657931733	1000
1	17860	15.646019198606	1000
1	17874	15.655570565834	1000
1	17881	15.663264652585	1000
1	17902	15.676756463732	1000
1	17909	15.677015544701	1000
1	17913	15.678310801599	1000
1	17918	15.68245754244	1000
1	17959	15.731345067869	1000
1	17966	15.73315139572	1000
1	17970	15.737967811276	1000
1	17974	15.738596640062	1000
1	17987	15.743425118597	1000
1	18000	15.748058827702	1000
1	18042	15.783264808076	1000
1	18057	15.805648705131	1000
1	18064	15.811438755346	1000
1	18068	15.811739726981	1000
1	18098	15.833076215436	1000
1	18112	15.846040869973	1000
1	18119	15.848024524524	1000
1	18141	15.91449779671	1000
1	18148	15.915765235786	1000
1	18168	15.939984448207	1000
1	18176	15.944166653546	1000
1	18189	15.951025317788	1000
1	18210	15.970069014515	1000
1	18224	15.983649151328	1000
1	18239	16.016990380827	1000
1	18252	16.028637453625	1000
1	18259	16.029872617397	1000
1	18281	16.055759935022	1000
1	18294	16.073352068143	1000
1	18308	16.088284209077	1000
1	18315	16.088946982092	1000
1	18320	16.095001581229	1000
1	18333	16.097200520806	1000
1	18357	16.117905705102	1000
1	18378	16.132374542561	1000
1	18393	16.158129479976	1000
1	18407	16.198910932372	1000
1	18420	16.216797337903	1000
1	18435	16.27866475604	1000
1	18448	16.29011172912	1000
1	18455	16.290565766662	1000
1	18459	16.290738015118	1000
1	18463	16.2957625138	1000
1	18497	16.316573804025	1000
1	18518	16.34070485929	1000
1	18533	16.379577636725	1000
1	18540	16.380385700763	1000
1	18544	16.380932840074	1000
1	18574	16.410274186427	1000
1	18582	16.414641113977	1000
1	18595	16.42443811671	1000
1	18617	16.47294703395	1000
1	18624	16.479085915436	1000
1	18644	16.492240667303	1000
1	18651	16.498388179068	1000
1	18672	16.515930466867	1000
1	18686	16.524932531916	1000
1	18693	16.528186729231	1000
1	18697	16.531984747537	1000
1	18711	16.535566577683	1000
1	18725	16.544686237898	1000
1	18748	16.559262155185	1000
1	18771	16.59503935213	1000
1	18784	16.609252821322	1000
1	18799	16.627487595274	1000
1	18806	16.629708034171	1000
1	18810	16.635330093605	1000
1	18823	16.641738819757	1000
1	18847	16.655653707211	1000
1	18851	16.659863589092	1000
1	18865	16.664200254484	1000
1	18878	16.66947886775	1000
1	18903	16.689426736395	1000
1	18917	16.699768085463	1000
1	18921	16.700707221638	1000
1	18934	16.701684945714	1000
1	18939	16.707253909609	1000
1	18963	16.724713468399	1000
1	18987	16.738716807796	1000
1	19008	16.753488100364	1000
1	19022	16.770979525943	1000
1	19030	16.775041382674	1000
1	19043	16.784577065814	1000
1	19057	16.793983191758	1000
1	19078	16.810131126008	1000
1	19093	16.847853721011	1000
1	19100	16.851762315499	1000
1	19120	16.870679093127	1000
1	19134	16.883623769676	1000
1	19148	16.894040574736	1000
1	19162	16.91193402333	1000
1	19177	16.946529824366	1000
1	19184	16.946978402117	1000
1	19188	16.948891980827	1000
1	19211	16.965833159649	1000
1	19215	16.966883293648	1000
1	19229	16.975594405523	1000
1	19233	16.978573800123	1000
1	19247	16.982421152011	1000
1	19270	16.996942671741	1000
1	19274	16.99731056729	1000
1	19308	17.022103605635	1000
1	19322	17.029157790992	1000
1	19336	17.037533134087	1000
1	19350	17.046852730742	1000
1	19365	17.059298793336	1000
1	19379	17.064373606726	1000
1	19383	17.065652708568	1000
1	19396	17.070252085432	1000
1	19401	17.072461209528	1000
1	19415	17.082207978105	1000
1	19428	17.086801189421	1000
1	19470	17.124861426105	1000
1	19485	17.165344743777	1000
1	19498	17.176959727879	1000
1	19512	17.188491961638	1000
1	19527	17.239195164456	1000
1	19541	17.265389681026	1000
1	19554	17.282771290777	1000
1	19562	17.287286663418	1000
1	19575	17.292746417436	1000
1	19579	17.29544315662	1000
1	19593	17.303456375232	1000
1	19625	17.359168993052	1000
1	19639	17.388354616351	1000
1	19646	17.389866130174	1000
1	19650	17.390172286159	1000
1	19680	17.417640931295	1000
1	19694	17.426885680229	1000
1	19701	17.42956625143	1000
1	19715	17.443003789921	1000
1	19736	17.455405209658	1000
1	19743	17.456967683886	1000
1	19747	17.460574464031	1000
1	19751	17.461317964159	1000
1	19765	17.464144512918	1000
1	19769	17.465847502442	1000
1	19773	17.468424195971	1000
1	19797	17.482304196868	1000
1	19801	17.482913399077	1000
1	19805	17.48420247899	1000
1	19809	17.485931329726	1000
1	19823	17.490498395283	1000
1	19827	17.494757090365	1000
1	19840	17.498290570482	1000
1	19865	17.514951889734	1000
1	19947	17.589664708127	1000
1	19960	17.59882697533	1000
1	19975	17.633459336445	1000
1	19982	17.639521637056	1000
1	19986	17.640875394953	1000
1	19999	17.647182074585	1000
1	20012	17.651395975728	1000
1	20026	17.659556543107	1000
1	20041	17.672398369263	1000
1	20055	17.679815963734	1000
1	20087	17.712646049883	1000
1	20101	17.738575412408	1000
1	20114	17.753102451577	1000
1	20122	17.761175174657	1000
1	20135	17.762869614874	1000
1	20139	17.768939943873	1000
1	20163	17.783564983426	1000
1	20176	17.787588735141	1000
1	20181	17.78890635382	1000
1	20212	17.817524717539	1000
1	20226	17.832339997053	1000
1	20240	17.843802759441	1000
1	20255	17.862674183292	1000
1	20269	17.884342977464	1000
1	20276	17.892270184784	1000
1	20297	17.917832764971	1000
1	20311	17.947616035484	1000
1	20318	17.951418089084	1000
1	20331	17.962642100868	1000
1	20345	17.971615471009	1000
1	20365	17.980880347537	1000
1	20381	18.014182767162	1000
1	20388	18.018552146989	1000
1	20409	18.067756967213	1000
1	20423	18.095646499436	1000
1	20430	18.103012386221	1000
1	20451	18.123421374774	1000
1	20464	18.141007867353	1000
1	20478	18.154602398472	1000
1	20485	18.159227417108	1000
1	20490	18.161852022286	1000
1	20513	18.17521165541	1000
1	20534	18.197427728398	1000
1	20542	18.197624364209	1000
1	20555	18.209977990826	1000
1	20569	18.216997536176	1000
1	20591	18.244401254609	1000
1	20598	18.249055225474	1000
1	20611	18.256768891291	1000
1	20625	18.265446407055	1000
1	20629	18.267262416106	1000
1	20653	18.282237190709	1000
1	20674	18.303534344759	1000
1	20682	18.304250189185	1000
1	20686	18.308383568857	1000
1	20690	18.308849016113	1000
1	20731	18.346481120491	1000
1	20744	18.359682559216	1000
1	20759	18.399640389274	1000
1	20772	18.408738872919	1000
1	20787	18.428176885407	1000
1	20794	18.433805682801	1000
1	20807	18.439045790896	1000
1	20820	18.44474874113	1000
1	20835	18.457619239092	1000
1	20849	18.462964435353	1000
1	20871	18.490639631311	1000
1	20885	18.539729745173	1000
1	20892	18.540100533278	1000
1	20896	18.542682984457	1000
1	20900	18.544111765554	1000
1	20904	18.544631216528	1000
1	20908	18.547732439889	1000
1	20921	18.554836723115	1000
1	20955	18.576604075062	1000
1	20959	18.57961370625	1000
1	20973	18.587787031274	1000
1	21017	18.619632970999	1000
1	21038	18.632836064152	1000
1	21053	18.652034610161	1000
1	21066	18.661643237553	1000
1	21081	18.708870706542	1000
1	21094	18.719530791198	1000
1	21101	18.720089737507	1000
1	21105	18.722737240209	1000
1	21119	18.728963002103	1000
1	21133	18.73999686746	1000
1	21157	18.757734145349	1000
1	21171	18.764128671701	1000
1	21192	18.778985576921	1000
1	21207	18.797705895557	1000
1	21214	18.802285592933	1000
1	21235	18.848799809162	1000
1	21248	18.861385903112	1000
1	21263	18.886929289065	1000
1	21276	18.896670773771	1000
1	21290	18.91290987624	1000
1	21304	18.930574407589	1000
1	21319	18.959238449132	1000
1	21326	18.961193615004	1000
1	21339	18.970998656853	1000
1	21353	18.977709995747	1000
1	21375	19.008502202654	1000
1	21382	19.009834651119	1000
1	21403	19.058432075153	1000
1	21417	19.083428778854	1000
1	21424	19.084349100338	1000
1	21437	19.092451994919	1000
1	21451	19.107623443415	1000
1	21472	19.123703315737	1000
1	21487	19.152140087268	1000
1	21501	19.171445271039	1000
1	21508	19.175914226731	1000
1	21521	19.184194486436	1000
1	21542	19.198713804147	1000
1	21549	19.200501887164	1000
1	21553	19.203089808606	1000
1	21567	19.210961006868	1000
1	21580	19.215211071772	1000
1	21605	19.239025820227	1000
1	21625	19.249616533061	1000
1	21633	19.25476131076	1000
1	21655	19.27743375432	1000
1	21669	19.297043344995	1000
1	21683	19.373962647701	1000
1	21697	19.396514612689	1000
1	21704	19.402937191024	1000
1	21708	19.404573887212	1000
1	21738	19.426613029345	1000
1	21745	19.427352444154	1000
1	21750	19.432526847134	1000
1	21781	19.462796353029	1000
1	21795	19.501655037885	1000
1	21808	19.513933687318	1000
1	21822	19.527935673652	1000
1	21829	19.528456258035	1000
1	21843	19.537126683963	1000
1	21857	19.546625550452	1000
1	21861	19.55161356771	1000
1	21865	19.552466324308	1000
1	21879	19.555585689109	1000
1	21892	19.560903392591	1000
1	21897	19.567757563216	1000
1	21920	19.57848389508	1000
1	21944	19.593862417116	1000
1	21949	19.598448649092	1000
1	21962	19.60323565595	1000
1	21966	19.603474313238	1000
1	21971	19.603975117859	1000
1	21975	19.607553106996	1000
1	21999	19.623729303504	1000
1	22022	19.635605768358	1000
1	22047	19.653230877311	1000
1	22071	19.670810743769	1000
1	22101	19.69411342981	1000
1	22116	19.709402708614	1000
1	22131	19.75576774329	1000
1	22145	19.783258611953	1000
1	22158	19.793862089075	1000
1	22172	19.804507465511	1000
1	22179	19.804925880576	1000
1	22201	19.883167868808	1000
1	22208	19.884860771231	1000
1	22227	19.901041690248	1000
1	22243	19.921687143033	1000
1	22250	19.927289891535	1000
1	22263	19.929920487665	1000
1	22267	19.931168290407	1000
1	22290	19.947737097072	1000
1	22304	19.954969176394	1000
1	22319	19.969978501821	1000
1	22341	19.999617438192	1000
1	22348	20.00151953245	1000
1	22369	20.03170456673	1000
1	22376	20.038069285821	1000
1	22389	20.042440018187	1000
1	22411	20.076829580765	1000
1	22425	20.13290030247	1000
1	22432	20.135561419795	1000
1	22445	20.148396063626	1000
1	22458	20.149747308084	1000
1	22473	20.162376551722	1000
1	22494	20.183451862106	1000
1	22508	20.197294965788	1000
1	22516	20.203776641983	1000
1	22529	20.20957256773	1000
1	22543	20.215565705882	1000
1	22557	20.226256451638	1000
1	22579	20.251857373784	1000
1	22593	20.283609464452	1000
1	22600	20.284269651738	1000
1	22604	20.286674828891	1000
1	22608	20.288103263022	1000
1	22612	20.290681419504	1000
1	22625	20.295788352291	1000
1	22639	20.304263911793	1000
1	22653	20.316177477965	1000
1	22677	20.331985067204	1000
1	22717	20.358484540028	1000
1	22733	20.412699723219	1000
1	22746	20.425746682048	1000
1	22761	20.448146898103	1000
1	22774	20.466209932879	1000
1	22782	20.470619852547	1000
1	22803	20.495639793721	1000
1	22810	20.496164246752	1000
1	22814	20.496168655764	1000
1	22818	20.50000670036	1000
1	22831	20.507447636543	1000
1	22845	20.51965300502	1000
1	22858	20.520940957948	1000
1	22873	20.534354871206	1000
1	22906	20.553777575708	1000
1	22911	20.556236990044	1000
1	22924	20.562673280814	1000
1	22939	20.571480535598	1000
1	22952	20.578694070381	1000
1	22977	20.59799712547	1000
1	22999	20.636781385337	1000
1	23013	20.656031993887	1000
1	23020	20.657006421012	1000
1	23040	20.67661952541	1000
1	23047	20.677446535611	1000
1	23051	20.680676320248	1000
1	23056	20.682670348119	1000
1	23069	20.685310914856	1000
1	23082	20.69432824486	1000
1	23097	20.707693803566	1000
1	23111	20.715319619251	1000
1	23153	20.753855167408	1000
1	23160	20.757153026079	1000
1	23180	20.774436469921	1000
1	23195	20.798935947893	1000
1	23208	20.808844195752	1000
1	23215	20.816154777254	1000
1	23235	20.82703634178	1000
1	23243	20.83375673758	1000
1	23257	20.843478138946	1000
1	23271	20.849951596596	1000
1	23285	20.856090902009	1000
1	23306	20.870353863346	1000
1	23313	20.871523248891	1000
1	23317	20.873709313541	1000
1	23347	20.896571015713	1000
1	23362	20.914263468735	1000
1	23370	20.918229770819	1000
1	23383	20.923913457055	1000
1	23405	20.955162038268	1000
1	23419	20.975612114379	1000
1	23432	20.987045899835	1000
1	23439	20.990050383843	1000
1	23443	20.990593515507	1000
1	23457	20.997365452776	1000
1	23471	21.01076531902	1000
1	23502	21.031922018491	1000
1	23517	21.05490453055	1000
1	23524	21.05530443135	1000
1	23528	21.058663491019	1000
1	23541	21.063633225639	1000
1	23545	21.066143110618	1000
1	23569	21.085636229185	1000
1	23593	21.103140843229	1000
1	23607	21.111869559362	1000
1	23629	21.160712277356	1000
1	23636	21.16257891698	1000
1	23657	21.190168215403	1000
1	23664	21.191654084147	1000
1	23668	21.19379186404	1000
1	23690	21.208089250808	1000
1	23695	21.20948185616	1000
1	23709	21.219494102861	1000
1	23723	21.226035661657	1000
1	23747	21.241680028724	1000
1	23769	21.269392353106	1000
1	23782	21.287021762871	1000
1	23797	21.30976241836	1000
1	23804	21.310164422821	1000
1	23808	21.314620587516	1000
1	23821	21.32331458452	1000
1	23835	21.329767876824	1000
1	23839	21.332923827646	1000
1	23853	21.337339676412	1000
1	23894	21.3722391416	1000
1	23901	21.37641989696	1000
1	23915	21.381661585194	1000
1	23919	21.38170618525	1000
1	23943	21.404084158919	1000
1	23956	21.406102920791	1000
1	23961	21.408842969114	1000
1	23965	21.412379683232	1000
1	24005	21.43829418783	1000
1	24013	21.441069073924	1000
1	24034	21.460234820866	1000
1	24049	21.480041023956	1000
1	24063	21.511451955402	1000
1	24070	21.512925580394	1000
1	24074	21.515865327639	1000
1	24097	21.53216472987	1000
1	24101	21.53478261325	1000
1	24115	21.538830620913	1000
1	24119	21.541019558449	1000
1	24123	21.543294565037	1000
1	24137	21.551177583061	1000
1	24141	21.552571716267	1000
1	24155	21.557229661535	1000
1	24169	21.563903594825	1000
1	24173	21.564201848205	1000
1	24186	21.570100658599	1000
1	24191	21.571286872024	1000
1	24205	21.579451504301	1000
1	24229	21.600417861556	1000
1	24263	21.620890711954	1000
1	24267	21.621897142862	1000
1	24281	21.632929520971	1000
1	24315	21.654521195059	1000
1	24319	21.657782467395	1000
1	24343	21.675004577918	1000
1	24383	21.701575551315	1000
1	24399	21.7212619989	1000
1	24406	21.722624069116	1000
1	24410	21.72273328458	1000
1	24414	21.725287506551	1000
1	24418	21.729071884822	1000
1	24441	21.740562957576	1000
1	24454	21.746382380122	1000
1	24469	21.760967114744	1000
1	24483	21.766193413017	1000
1	24487	21.768206279935	1000
1	24501	21.772705915387	1000
1	24535	21.798589483934	1000
1	24567	21.836783583453	1000
1	24574	21.839574529487	1000
1	24594	21.858215099433	1000
1	24601	21.862046802732	1000
1	24623	21.888225189772	1000
1	24630	21.89039691622	1000
1	24643	21.903554847698	1000
1	24647	21.904610482616	1000
1	24679	21.94835725526	1000
1	24692	21.962830289321	1000
1	24707	21.98495822565	1000
1	24720	21.994993275978	1000
1	24727	22.002766804965	1000
1	24748	22.014437404984	1000
1	24762	22.023465587334	1000
1	24769	22.031070195445	1000
1	24790	22.048168135964	1000
1	24798	22.050523248607	1000
1	24802	22.052776160793	1000
1	24815	22.059560443311	1000
1	24819	22.064201598852	1000
1	24832	22.065125785142	1000
1	24857	22.087456822628	1000
1	24881	22.105176851776	1000
1	24901	22.114597935687	1000
1	24917	22.161143629635	1000
1	24924	22.162048074107	1000
1	24944	22.179511656192	1000
1	24951	22.183228668194	1000
1	24965	22.188746436059	1000
1	24969	22.191716891039	1000
1	24993	22.210389812167	1000
1	24997	22.212258997363	1000
1	25028	22.234251227238	1000
1	25042	22.247252754456	1000
1	25049	22.247982796547	1000
1	25070	22.267973736036	1000
1	25084	22.279832195551	1000
1	25099	22.308076502678	1000
1	25112	22.324650861687	1000
1	25126	22.334533238179	1000
1	25141	22.356268008593	1000
1	25148	22.360177605265	1000
1	25161	22.369678640332	1000
1	25174	22.373849809616	1000
1	25197	22.415230934829	1000
1	25204	22.418308179476	1000
1	25208	22.418498540254	1000
1	25212	22.423230258085	1000
1	25225	22.4316084014	1000
1	25238	22.431953676572	1000
1	25253	22.441784959793	1000
1	25287	22.466669601429	1000
1	25307	22.481308071377	1000
1	25322	22.493013184018	1000
1	25337	22.530485545076	1000
1	25351	22.568606649169	1000
1	25365	22.589472086517	1000
1	25378	22.600702107637	1000
1	25386	22.608729758571	1000
1	25390	22.608890625423	1000
1	25413	22.62007545728	1000
1	25435	22.674290248712	1000
1	25449	22.694741896294	1000
1	25456	22.699739080171	1000
1	25460	22.70171824136	1000
1	25489	22.720111220471	1000
1	25504	22.736459240346	1000
1	25519	22.777411242055	1000
1	25533	22.802349416731	1000
1	25546	22.812083470656	1000
1	25553	22.813364932324	1000
1	25567	22.821293107406	1000
1	25571	22.825810306103	1000
1	25585	22.834429633516	1000
1	25599	22.838738938192	1000
1	25629	22.862489574684	1000
1	25645	22.884809547122	1000
1	25652	22.889357735893	1000
1	25665	22.900340671768	1000
1	25679	22.90708990688	1000
1	25701	22.935864894131	1000
1	25708	22.938354512332	1000
1	25727	22.952711664116	1000
1	25743	22.994941435094	1000
1	25750	22.997253906136	1000
1	25754	22.999961161535	1000
1	25777	23.014160359014	1000
1	25798	23.032283830655	1000
1	25806	23.040376891253	1000
1	25826	23.051666550469	1000
1	25833	23.054536033203	1000
1	25847	23.062305270794	1000
1	25851	23.063731644637	1000
1	25864	23.068384713518	1000
1	25869	23.0724066896	1000
1	25883	23.0794640379	1000
1	25924	23.111396840298	1000
1	25931	23.113796817047	1000
1	25945	23.119954521652	1000
1	25959	23.131427294218	1000
1	25981	23.166576988674	1000
1	25988	23.168291635592	1000
1	26009	23.198286026012	1000
1	26016	23.199300358326	1000
1	26029	23.207164597461	1000
1	26033	23.214439204249	1000
1	26047	23.217261839359	1000
1	26051	23.22238442734	1000
1	26065	23.229649695818	1000
1	26099	23.253698273009	1000
1	26121	23.290928503496	1000
1	26134	23.299709305593	1000
1	26149	23.324201170343	1000
1	26162	23.335444345401	1000
1	26169	23.34059690308	1000
1	26174	23.343187853316	1000
1	26187	23.349583374241	1000
1	26201	23.358461820058	1000
1	26205	23.359007355292	1000
1	26218	23.360899012579	1000
1	26233	23.371900035283	1000
1	26237	23.374958766961	1000
1	26271	23.396750879599	1000
1	26284	23.401501969287	1000
1	26288	23.402830925331	1000
1	26293	23.403877644395	1000
1	26337	23.437076545683	1000
1	26341	23.43858358074	1000
1	26345	23.440406156517	1000
1	26379	23.464230233841	1000
1	26392	23.467751225706	1000
1	26407	23.480908851603	1000
1	26428	23.50127010681	1000
1	26442	23.512482971854	1000
1	26457	23.55037875112	1000
1	26470	23.565187107548	1000
1	26477	23.566622669804	1000
1	26491	23.576431151722	1000
1	26511	23.591629270056	1000
1	26527	23.611060537566	1000
1	26534	23.61138062481	1000
1	26547	23.626608262233	1000
1	26569	23.647570669487	1000
1	26582	23.664055179056	1000
1	26596	23.672673046277	1000
1	26603	23.680023381758	1000
1	26623	23.689589979649	1000
1	26638	23.704224854022	1000
1	26653	23.734978903292	1000
1	26666	23.746496650236	1000
1	26681	23.77274998728	1000
1	26694	23.787248040222	1000
1	26701	23.7880974416	1000
1	26715	23.796435100706	1000
1	26719	23.800485745193	1000
1	26732	23.804514354174	1000
1	26737	23.80979368295	1000
1	26751	23.81432903977	1000
1	26765	23.824699397246	1000
1	26789	23.838508430706	1000
1	26793	23.842264419261	1000
1	26797	23.843932290405	1000
1	26801	23.84465959706	1000
1	26825	23.85494886588	1000
1	26829	23.857420323899	1000
1	26833	23.857531816135	1000
1	26877	23.889063803229	1000
1	26891	23.898307781831	1000
1	26895	23.899471837155	1000
1	26929	23.921683922499	1000
1	26961	23.970722392414	1000
1	26968	23.977865944124	1000
1	26972	23.978386968608	1000
1	26985	23.979887551265	1000
1	26989	23.985656031603	1000
1	27023	24.011664569971	1000
1	27036	24.013587139827	1000
1	27058	24.034433719813	1000
1	27065	24.034614794261	1000
1	27070	24.041951138823	1000
1	27093	24.054358427741	1000
1	27097	24.055105777975	1000
1	27111	24.066552528863	1000
1	27143	24.101228282755	1000
1	27150	24.103324237081	1000
1	27169	24.119018977691	1000
1	27184	24.130290432523	1000
1	27191	24.132746952424	1000
1	27195	24.132821625301	1000
1	27199	24.132933559083	1000
1	27213	24.142047372581	1000
1	27254	24.176377471063	1000
1	27268	24.188781435796	1000
1	27282	24.203815185042	1000
1	27290	24.211986618771	1000
1	27310	24.222450717132	1000
1	27317	24.224071863139	1000
1	27339	24.249201226384	1000
1	27352	24.26636631987	1000
1	27367	24.342198977622	1000
1	27374	24.346440105041	1000
1	27378	24.34953009567	1000
1	27391	24.351134689589	1000
1	27423	24.391095648321	1000
1	27436	24.409313561307	1000
1	27444	24.411496495378	1000
1	27457	24.421150441574	1000
1	27471	24.427558921765	1000
1	27475	24.429530146139	1000
1	27479	24.431652037377	1000
1	27521	24.471367493513	1000
1	27528	24.475732996277	1000
1	27549	24.509785291521	1000
1	27556	24.510728754898	1000
1	27569	24.518140847271	1000
1	27573	24.519806738718	1000
1	27577	24.519864325234	1000
1	27591	24.529547268794	1000
1	27595	24.530998294513	1000
1	27619	24.546360963671	1000
1	27642	24.560733527768	1000
1	27647	24.563061393914	1000
1	27688	24.597175909103	1000
1	27702	24.612496298221	1000
1	27710	24.616741652395	1000
1	27730	24.631564480311	1000
1	27744	24.647362578147	1000
1	27752	24.652389310691	1000
1	27765	24.658040659936	1000
1	27769	24.663379363891	1000
1	27793	24.674884058503	1000
1	27815	24.702564398542	1000
1	27822	24.704846609756	1000
1	27843	24.729819086146	1000
1	27850	24.730155598572	1000
1	27863	24.743113271082	1000
1	27877	24.74953548746	1000
1	27898	24.768336716659	1000
1	27912	24.783663762839	1000
1	27920	24.791513368632	1000
1	27940	24.803902681203	1000
1	27954	24.812263078049	1000
1	27969	24.832288141451	1000
1	27976	24.840045228005	1000
1	27995	24.848932018435	1000
1	28003	24.852392535532	1000
1	28017	24.863540276684	1000
1	28031	24.867870276375	1000
1	28045	24.878202933285	1000
1	28049	24.880434235451	1000
1	28062	24.882518894076	1000
1	28067	24.888994323406	1000
1	28081	24.895672978942	1000
1	28094	24.899418467459	1000
1	28099	24.901111658029	1000
1	28103	24.901591657757	1000
1	28107	24.901898325031	1000
1	28111	24.905700365272	1000
1	28125	24.913135857293	1000
1	28149	24.928682042986	1000
1	28163	24.936411395005	1000
1	28206	24.96453863366	1000
1	28210	24.964968893483	1000
1	28215	24.967359976265	1000
1	28228	24.972319182751	1000
1	28243	24.982657864494	1000
4	12	0.022315250545	1008
4	19	0.028927832385	1008
4	39	0.041385743993	1008
4	46	0.048291974356	1008
4	68	0.07497426742	1008
4	82	0.114753214779	1008
4	89	0.120556440038	1008
4	109	0.139383193449	1008
4	123	0.148415282809	1008
4	137	0.158488477044	1008
4	152	0.189667526074	1008
4	159	0.19055175034	1008
4	163	0.191645682653	1008
4	167	0.191890789714	1008
4	190	0.213340641675	1008
4	220	0.231410052779	1008
4	236	0.255893823874	1008
4	250	0.302036486304	1008
4	264	0.321299360989	1008
4	271	0.328726514505	1008
4	291	0.346924946193	1008
4	299	0.348435439106	1008
4	312	0.360692621598	1008
4	316	0.362549377764	1008
4	348	0.3972824235	1008
4	361	0.406136351001	1008
4	368	0.412563139644	1008
4	382	0.41625050387	1008
4	403	0.434109561779	1008
4	411	0.441418550857	1008
4	430	0.451502567324	1008
4	437	0.451730190154	1008
4	452	0.463266761423	1008
4	466	0.474630721549	1008
4	486	0.486145297277	1008
4	502	0.520680277532	1008
4	515	0.534421944988	1008
4	523	0.539768166929	1008
4	536	0.54666255581	1008
4	557	0.561015849403	1008
4	564	0.561761232889	1008
4	578	0.5749481825	1008
4	599	0.588275351848	1008
4	606	0.591109832321	1008
4	610	0.592766176582	1008
4	624	0.597313720153	1008
4	628	0.602738944876	1008
4	642	0.612872078398	1008
4	656	0.619799970128	1008
4	698	0.673253932282	1008
4	705	0.67454555358	1008
4	709	0.677357171805	1008
4	713	0.67946813435	1008
4	736	0.692173046931	1008
4	740	0.69567801333	1008
4	754	0.703213312302	1008
4	767	0.706576636404	1008
4	772	0.708654165878	1008
4	776	0.710057630796	1008
4	799	0.722874497162	1008
4	804	0.724659044393	1008
4	808	0.727285611551	1008
4	822	0.732805779044	1008
4	846	0.753449758937	1008
4	850	0.754675497515	1008
4	884	0.776513324546	1008
4	888	0.77772574185	1008
4	948	0.822714119365	1008
4	956	0.830302158522	1008
4	978	0.875445285936	1008
4	991	0.886587027899	1008
4	1005	0.902717971165	1008
4	1012	0.903197686754	1008
4	1017	0.907186609646	1008
4	1021	0.90872329083	1008
4	1034	0.912937403903	1008
4	1038	0.91445406754	1008
4	1042	0.919046478926	1008
4	1056	0.925465091435	1008
4	1060	0.926260660253	1008
4	1084	0.940410934578	1008
4	1098	0.950444104962	1008
4	1112	0.954145083043	1008
4	1126	0.963034190448	1008
4	1130	0.964217994149	1008
4	1144	0.974512741842	1008
4	1188	1.006303812986	1008
4	1201	1.010906535555	1008
4	1216	1.024116686476	1008
4	1220	1.025812655039	1008
4	1244	1.04093186076	1008
4	1258	1.045031710764	1008
4	1262	1.047459916027	1008
4	1276	1.058057464531	1008
4	1280	1.058301214037	1008
4	1314	1.079490106906	1008
4	1318	1.079546585392	1008
4	1341	1.093138195096	1008
4	1346	1.096914855026	1008
4	1370	1.112859949511	1008
4	1412	1.152161667644	1008
4	1419	1.155593919314	1008
4	1432	1.165894634928	1008
4	1446	1.176653725377	1008
4	1467	1.186844375116	1008
4	1474	1.189873415031	1008
4	1496	1.226500794914	1008
4	1503	1.233612283243	1008
4	1524	1.256093801801	1008
4	1537	1.270520664608	1008
4	1545	1.274756906207	1008
4	1565	1.294927972662	1008
4	1573	1.300988197635	1008
4	1594	1.326542190388	1008
4	1607	1.336988620304	1008
4	1622	1.362606585704	1008
4	1635	1.376759180908	1008
4	1649	1.392262092134	1008
4	1663	1.400611685665	1008
4	1678	1.438117305957	1008
4	1691	1.450510870085	1008
4	1699	1.457127621967	1008
4	1718	1.468316456532	1008
4	1725	1.468549013908	1008
4	1730	1.472856140498	1008
4	1753	1.485807982882	1008
4	1758	1.489919178378	1008
4	1781	1.501467679047	1008
4	1786	1.508187211888	1008
4	1799	1.509934099629	1008
4	1804	1.514184789216	1008
4	1818	1.524311450887	1008
4	1841	1.535036199827	1008
4	1856	1.545285156655	1008
4	1870	1.55799326928	1008
4	1894	1.570663464584	1008
4	1908	1.577438790597	1008
4	1930	1.604662398509	1008
4	1937	1.610160473116	1008
4	1950	1.617030011733	1008
4	1972	1.64372898762	1008
4	1986	1.663419758555	1008
4	1999	1.678023992499	1008
4	2006	1.679291344223	1008
4	2028	1.709522729784	1008
4	2041	1.724554020083	1008
4	2056	1.805738706322	1008
4	2063	1.807681147363	1008
4	2083	1.831992053168	1008
4	2091	1.83411996007	1008
4	2104	1.845591557157	1008
4	2108	1.847177761672	1008
4	2139	1.869784908311	1008
4	2154	1.889545537527	1008
4	2167	1.899648109068	1008
4	2174	1.905922549429	1008
4	2178	1.906782654041	1008
4	2202	1.921127916836	1008
4	2216	1.928379505698	1008
4	2237	1.943743516144	1008
4	2252	1.967896788978	1008
4	2266	2.012416316081	1008
4	2280	2.035655242931	1008
4	2287	2.035796641714	1008
4	2291	2.04115167556	1008
4	2314	2.056863255928	1008
4	2318	2.059122795631	1008
4	2332	2.067956368831	1008
4	2345	2.068626809466	1008
4	2350	2.071304479963	1008
4	2354	2.071528825608	1008
4	2378	2.090469778273	1008
4	2391	2.093511846735	1008
4	2396	2.098595731951	1008
4	2440	2.130182358302	1008
4	2461	2.144807919942	1008
4	2468	2.145196201598	1008
4	2472	2.147355689697	1008
4	2486	2.159013475594	1008
4	2500	2.169344559234	1008
4	2514	2.172604576078	1008
4	2546	2.205260755149	1008
4	2559	2.21668271164	1008
4	2573	2.225887667495	1008
4	2587	2.236584210418	1008
4	2601	2.252301634874	1008
4	2609	2.256788272825	1008
4	2622	2.262882654297	1008
4	2626	2.265708949178	1008
4	2630	2.26818133376	1008
4	2671	2.302850240863	1008
4	2685	2.318994410062	1008
4	2693	2.327085344898	1008
4	2706	2.330181498065	1008
4	2710	2.333703589888	1008
4	2714	2.334420961443	1008
4	2728	2.341259732227	1008
4	2742	2.34574376976	1008
4	2756	2.360046067004	1008
4	2770	2.365739062488	1008
4	2774	2.368114675312	1008
4	2787	2.368414535552	1008
4	2791	2.369249947605	1008
4	2806	2.382900409671	1008
4	2820	2.390155384291	1008
4	2834	2.399384821904	1008
4	2877	2.426622902093	1008
4	2910	2.482298732409	1008
4	2917	2.485232624674	1008
4	2930	2.498287477877	1008
4	2944	2.501954736699	1008
4	2948	2.502205143322	1008
4	2972	2.519249744789	1008
4	2985	2.523877997118	1008
4	2990	2.529681657768	1008
4	3013	2.54033168091	1008
4	3035	2.561669400952	1008
4	3049	2.573567452467	1008
4	3064	2.598297307358	1008
4	3071	2.602132203216	1008
4	3091	2.621328836518	1008
4	3098	2.623793009743	1008
4	3120	2.660431225778	1008
4	3133	2.674388585179	1008
4	3140	2.677301207103	1008
4	3162	2.712634970432	1008
4	3175	2.728385066348	1008
4	3183	2.73190048385	1008
4	3187	2.734779566083	1008
4	3200	2.743542298066	1008
4	3204	2.743854271008	1008
4	3218	2.746644571229	1008
4	3231	2.753278631677	1008
4	3236	2.758902749389	1008
4	3250	2.766376701106	1008
4	3263	2.770279293322	1008
4	3278	2.780884721194	1008
4	3312	2.804813191609	1008
4	3316	2.806313582688	1008
4	3330	2.815055868801	1008
4	3334	2.816755573219	1008
4	3358	2.831897325301	1008
4	3372	2.8379486845	1008
4	3386	2.847949223388	1008
4	3390	2.850378728552	1008
4	3403	2.852256437797	1008
4	3417	2.860290924887	1008
4	3422	2.865564389573	1008
4	3466	2.899412020954	1008
4	3490	2.916806678271	1008
4	3511	2.933378235419	1008
4	3526	2.961464138947	1008
4	3533	2.962509441946	1008
4	3546	2.972150143098	1008
4	3560	2.982688724043	1008
4	3582	3.021910680853	1008
4	3589	3.026056915858	1008
4	3593	3.029363251102	1008
4	3606	3.030631497191	1008
4	3610	3.030830290324	1008
4	3644	3.06266099251	1008
4	3665	3.075961909561	1008
4	3680	3.094415854135	1008
4	3687	3.098386772709	1008
4	3700	3.108981339248	1008
4	3704	3.109774443376	1008
4	3718	3.117752136371	1008
4	3750	3.163280421768	1008
4	3764	3.188379100639	1008
4	3771	3.19333185904	1008
4	3792	3.232438910766	1008
4	3799	3.23560183612	1008
4	3820	3.271388244226	1008
4	3834	3.305427926547	1008
4	3848	3.324693431704	1008
4	3861	3.336638995424	1008
4	3876	3.361524132981	1008
4	3883	3.365685172626	1008
4	3904	3.388366393003	1008
4	3917	3.399910536122	1008
4	3924	3.40007043906	1008
4	3928	3.405188868804	1008
4	3933	3.407112877938	1008
4	3974	3.455208273796	1008
4	3981	3.463017841904	1008
4	3994	3.471273163646	1008
4	4015	3.483515408701	1008
4	4022	3.489032904514	1008
4	4027	3.490799604962	1008
4	4057	3.511519205519	1008
4	4064	3.514045604977	1008
4	4078	3.522638148793	1008
4	4082	3.525686285333	1008
4	4086	3.526921905698	1008
4	4120	3.550704589791	1008
4	4142	3.594011881851	1008
4	4156	3.632891437454	1008
4	4170	3.661336088421	1008
4	4183	3.679185245473	1008
4	4191	3.684047440061	1008
4	4195	3.685062393962	1008
4	4208	3.691338005806	1008
4	4212	3.694509251376	1008
4	4225	3.696214757513	1008
4	4229	3.696873645984	1008
4	4253	3.71239142029	1008
4	4257	3.712529339293	1008
4	4281	3.730195789189	1008
4	4286	3.732102987345	1008
4	4290	3.73309733462	1008
4	4294	3.734223829187	1008
4	4318	3.74760247825	1008
4	4322	3.75098076652	1008
4	4336	3.757528659097	1008
4	4350	3.767308879068	1008
4	4384	3.790949569855	1008
4	4408	3.806530917482	1008
4	4412	3.810312837827	1008
4	4425	3.81200445244	1008
4	4430	3.81268805083	1008
4	4434	3.816995586651	1008
4	4447	3.820643245362	1008
4	4461	3.827952018826	1008
4	4476	3.841748915479	1008
4	4500	3.856022870495	1008
4	4504	3.860023710556	1008
4	4518	3.865758726406	1008
4	4522	3.868156992861	1008
4	4556	3.886801938885	1008
4	4560	3.887504273672	1008
4	4583	3.901832434119	1008
4	4608	3.919931016899	1008
4	4632	3.937959970424	1008
4	4636	3.941563871387	1008
4	4650	3.947181148826	1008
4	4664	3.957810276578	1008
4	4678	3.961633282753	1008
4	4691	3.967193963083	1008
4	4696	3.969827581014	1008
4	4710	3.977218612419	1008
4	4714	3.977766269013	1008
4	4738	3.997067283202	1008
4	4742	3.998028229473	1008
4	4756	4.006806773543	1008
4	4770	4.011204189045	1008
4	4784	4.021544198947	1008
4	4838	4.060001904902	1008
4	4852	4.072448846031	1008
4	4856	4.072880879988	1008
4	4870	4.07963478241	1008
4	4884	4.088195393804	1008
4	4898	4.097414433906	1008
4	4922	4.111139978455	1008
4	4926	4.115042028901	1008
4	4939	4.116697467684	1008
4	4944	4.122681775678	1008
4	4995	4.160275729553	1008
4	5002	4.16276195174	1008
4	5024	4.190880830901	1008
4	5037	4.200298875136	1008
4	5044	4.207624669276	1008
4	5066	4.233273729561	1008
4	5073	4.240636980078	1008
4	5093	4.256092523779	1008
4	5101	4.262202953621	1008
4	5122	4.290329389311	1008
4	5135	4.30438455365	1008
4	5149	4.318817119056	1008
4	5157	4.323582090456	1008
4	5177	4.34054749041	1008
4	5191	4.352676720367	1008
4	5198	4.355970282631	1008
4	5202	4.35807022321	1008
4	5226	4.377168896684	1008
4	5248	4.415547956405	1008
4	5255	4.422900901743	1008
4	5274	4.433628918575	1008
4	5290	4.457028641517	1008
4	5297	4.464361332252	1008
4	5318	4.500768643121	1008
4	5331	4.511057864352	1008
4	5346	4.531686696093	1008
4	5360	4.560428853566	1008
4	5374	4.580711673023	1008
4	5381	4.582795551782	1008
4	5394	4.594690905851	1008
4	5408	4.6007895393	1008
4	5412	4.601566727613	1008
4	5426	4.608187170964	1008
4	5430	4.611779111553	1008
4	5464	4.634467861406	1008
4	5468	4.634874323669	1008
4	5500	4.673199466141	1008
4	5507	4.678468389968	1008
4	5520	4.683762247697	1008
4	5524	4.683959807105	1008
4	5528	4.686418034311	1008
4	5542	4.692573158213	1008
4	5583	4.72436341736	1008
4	5590	4.725622610328	1008
4	5612	4.760493645572	1008
4	5626	4.784929175819	1008
4	5633	4.792194381199	1008
4	5646	4.796941168404	1008
4	5650	4.800120387656	1008
4	5674	4.811557858115	1008
4	5678	4.811961465166	1008
4	5682	4.812150214651	1008
4	5695	4.818870315131	1008
4	5700	4.819716338511	1008
4	5704	4.823199619492	1008
4	5717	4.826199029292	1008
4	5722	4.829702382153	1008
4	5726	4.831388090756	1008
4	5730	4.831533401697	1008
4	5734	4.833005981785	1008
4	5758	4.84456909414	1008
4	5812	4.888483839562	1008
4	5864	4.944167199513	1008
4	5871	4.950479569062	1008
4	5884	4.952614090156	1008
4	5898	4.964832701102	1008
4	5912	4.972920022433	1008
4	5934	5.027493908655	1008
4	5941	5.028304318538	1008
4	5961	5.046651584987	1008
4	5968	5.050734431622	1008
4	5973	5.054050093937	1008
4	5996	5.067084533671	1008
4	6000	5.070473894215	1008
4	6024	5.083628204947	1008
4	6038	5.092368735823	1008
4	6052	5.098990361283	1008
4	6066	5.108698117625	1008
4	6079	5.112758271049	1008
4	6094	5.127471857596	1008
4	6108	5.13390264314	1008
4	6122	5.139268321971	1008
4	6143	5.160437370677	1008
4	6158	5.191515284423	1008
4	6165	5.192080475676	1008
4	6169	5.195257862956	1008
4	6182	5.200399954206	1008
4	6206	5.220646573671	1008
4	6228	5.271442763227	1008
4	6242	5.313117031698	1008
4	6256	5.341357048915	1008
4	6263	5.34557825754	1008
4	6284	5.403534900516	1008
4	6291	5.406977809661	1008
4	6295	5.408321144155	1008
4	6326	5.444500763421	1008
4	6333	5.447690562009	1008
4	6352	5.461735790769	1008
4	6359	5.462457331199	1008
4	6380	5.478200888172	1008
4	6396	5.503817316906	1008
4	6403	5.507633971448	1008
4	6416	5.5133521613	1008
4	6420	5.518978699168	1008
4	6444	5.535556208126	1008
4	6458	5.538814877626	1008
4	6462	5.541077654317	1008
4	6476	5.54823625332	1008
4	6480	5.552593199402	1008
4	6514	5.574523514616	1008
4	6518	5.577781154213	1008
4	6541	5.586156404799	1008
4	6564	5.620445508973	1008
4	6577	5.632506896756	1008
4	6592	5.656741910795	1008
4	6606	5.690544851555	1008
4	6619	5.707217153638	1008
4	6633	5.721647841775	1008
4	6648	5.762939170346	1008
4	6662	5.825160723422	1008
4	6669	5.832374579179	1008
4	6673	5.833256655708	1008
4	6686	5.837413855638	1008
4	6690	5.839397371786	1008
4	6704	5.845882204157	1008
4	6708	5.847571146022	1008
4	6731	5.858690809226	1008
4	6736	5.864481711808	1008
4	6779	5.891571433297	1008
4	6802	5.932798914007	1008
4	6815	5.942298223142	1008
4	6822	5.946154306776	1008
4	6836	5.956918942945	1008
4	6858	5.984167464234	1008
4	6865	5.990432799887	1008
4	6878	6.00007044115	1008
4	6892	6.003874169709	1008
4	6906	6.011167586878	1008
4	6919	6.017331814237	1008
4	6924	6.020758641283	1008
4	6938	6.02921803314	1008
4	6951	6.033677422198	1008
4	6956	6.039279794321	1008
4	6970	6.048212333458	1008
4	6994	6.064876460744	1008
4	7008	6.06974517687	1008
4	7039	6.100694534439	1008
4	7054	6.124488285402	1008
4	7061	6.125087272631	1008
4	7065	6.128597879845	1008
4	7078	6.13568790249	1008
4	7082	6.137014093009	1008
4	7095	6.142155385354	1008
4	7119	6.158324771238	1008
4	7134	6.172017291249	1008
4	7157	6.183703834347	1008
4	7178	6.198580211314	1008
4	7186	6.201332017374	1008
4	7190	6.206349117281	1008
4	7214	6.219882242484	1008
4	7236	6.24524912426	1008
4	7249	6.254663804623	1008
4	7256	6.258650932106	1008
4	7260	6.259019353382	1008
4	7284	6.273887791471	1008
4	7288	6.273982775629	1008
4	7301	6.279578339946	1008
4	7315	6.288652334919	1008
4	7347	6.319282052842	1008
4	7354	6.320407117493	1008
4	7359	6.326656463871	1008
4	7363	6.3269518276	1008
4	7376	6.331985579482	1008
4	7390	6.343667250006	1008
4	7404	6.347593774582	1008
4	7408	6.35041864498	1008
4	7412	6.351894195783	1008
4	7436	6.362222772273	1008
4	7450	6.376482722196	1008
4	7474	6.389858054232	1008
4	7515	6.425536554306	1008
4	7522	6.425569036801	1008
4	7536	6.438071170379	1008
4	7550	6.449078431942	1008
4	7570	6.45974077649	1008
4	7586	6.499228562453	1008
4	7593	6.499432749938	1008
4	7606	6.513740539229	1008
4	7627	6.53390392803	1008
4	7641	6.54245940578	1008
4	7648	6.547336360181	1008
4	7669	6.566112238789	1008
4	7676	6.567339860161	1008
4	7690	6.574341382229	1008
4	7703	6.583147821833	1008
4	7718	6.597356154669	1008
4	7722	6.598499568463	1008
4	7736	6.601601079448	1008
4	7749	6.607938807337	1008
4	7764	6.619654311613	1008
4	7795	6.645814556979	1008
4	7809	6.65738855412	1008
4	7816	6.659107538565	1008
4	7838	6.706405042781	1008
4	7852	6.731053672587	1008
4	7865	6.73943691539	1008
4	7880	6.77010312799	1008
4	7893	6.779457548336	1008
4	7908	6.81027273988	1008
4	7922	6.831528979712	1008
4	7936	6.872941101264	1008
4	7950	6.9032173108	1008
4	7957	6.903657699643	1008
4	7961	6.905962846557	1008
4	7974	6.911877391777	1008
4	8006	6.948351770859	1008
4	8013	6.952632365891	1008
4	8017	6.954731289012	1008
4	8047	6.980822083898	1008
4	8055	6.987917717325	1008
4	8076	7.016533101444	1008
4	8083	7.018628635002	1008
4	8096	7.031613857616	1008
4	8110	7.038577332672	1008
4	8114	7.039532174533	1008
4	8138	7.053839201438	1008
4	8142	7.05724983836	1008
4	8155	7.057734897292	1008
4	8159	7.058476691076	1008
4	8163	7.059232972407	1008
4	8198	7.087829791685	1008
4	8222	7.103989319147	1008
4	8244	7.13139004756	1008
4	8257	7.144788270443	1008
4	8271	7.153821506267	1008
4	8278	7.15817807212	1008
4	8300	7.232528993545	1008
4	8307	7.23792555396	1008
4	8320	7.245558795412	1008
4	8334	7.251261308677	1008
4	8356	7.29792504535	1008
4	8363	7.300228540173	1008
4	8367	7.304998289132	1008
4	8390	7.318684582832	1008
4	8394	7.31946810598	1008
4	8408	7.330683070976	1008
4	8422	7.338475999698	1008
4	8436	7.342484900695	1008
4	8440	7.345753115411	1008
4	8454	7.354424342261	1008
4	8468	7.359929357893	1008
4	8482	7.367246503967	1008
4	8495	7.372186910901	1008
4	8537	7.414464726996	1008
4	8545	7.416183406254	1008
4	8549	7.417405193958	1008
4	8553	7.422453206027	1008
4	8576	7.433182476685	1008
4	8590	7.446099162198	1008
4	8604	7.452174329803	1008
4	8636	7.538975951237	1008
4	8643	7.544180344882	1008
4	8663	7.559516370432	1008
4	8677	7.571695877932	1008
4	8692	7.591819094728	1008
4	8706	7.636688876464	1008
4	8720	7.66315368611	1008
4	8733	7.680509376976	1008
4	8747	7.69488719363	1008
4	8755	7.699791805481	1008
4	8759	7.701709402846	1008
4	8763	7.702485606108	1008
4	8776	7.705808912812	1008
4	8789	7.712602467432	1008
4	8804	7.721460108343	1008
4	8828	7.739258189239	1008
4	8860	7.777512799306	1008
4	8867	7.779010316413	1008
4	8871	7.780368396402	1008
4	8884	7.791058642025	1008
4	8908	7.807475290282	1008
4	8930	7.830093665652	1008
4	8944	7.863048688095	1008
4	8958	7.912247899607	1008
4	8965	7.918373841559	1008
4	8978	7.924116760412	1008
4	8982	7.926036090972	1008
4	9006	7.939895785375	1008
4	9020	7.952727758075	1008
4	9042	7.976499221628	1008
4	9049	7.977727043383	1008
4	9062	7.98599157351	1008
4	9076	7.996432532434	1008
4	9080	7.999750384643	1008
4	9093	8.001972257285	1008
4	9118	8.02552973676	1008
4	9131	8.026253553045	1008
4	9136	8.033886158698	1008
4	9149	8.035363484157	1008
4	9163	8.042692534255	1008
4	9196	8.089614223491	1008
4	9203	8.096227878871	1008
4	9224	8.119577293878	1008
4	9231	8.121074744146	1008
4	9235	8.12487187284	1008
4	9248	8.131077875965	1008
4	9261	8.137204026876	1008
4	9276	8.150558392615	1008
4	9290	8.155630670072	1008
4	9313	8.170642054	1008
4	9328	8.182874796257	1008
4	9342	8.18898793838	1008
4	9356	8.195770477998	1008
4	9370	8.207209909173	1008
4	9374	8.20808130187	1008
4	9405	8.228820414346	1008
4	9419	8.241536153665	1008
4	9433	8.257086687463	1008
4	9447	8.266325030693	1008
4	9454	8.267729871165	1008
4	9458	8.273960915864	1008
4	9472	8.280198779203	1008
4	9486	8.28484514881	1008
4	9490	8.285210044735	1008
4	9514	8.301248865743	1008
4	9518	8.302644365744	1008
4	9532	8.313830606631	1008
4	9556	8.328407675134	1008
4	9579	8.340494947395	1008
4	9602	8.378866852484	1008
4	9609	8.380175234847	1008
4	9629	8.404399199966	1008
4	9636	8.404754696994	1008
4	9650	8.413941165981	1008
4	9654	8.420156247322	1008
4	9668	8.429068932318	1008
4	9682	8.434520383243	1008
4	9686	8.437057437343	1008
4	9690	8.437289134605	1008
4	9713	8.446050598848	1008
[...]
45	23068	20.684846193922	3
45	23074	20.693070193922	1
45	23081	20.693071528178	3
45	23088	20.701295528178	1
45	23095	20.701296862434	3
45	23102	20.709520862434	1
45	23109	20.70952219669	3
45	23116	20.71774619669	1
45	23123	20.717747530946	3
45	23126	20.725971530946	1
45	23133	20.725972865202	3
45	23136	20.734196865202	1
45	23143	20.734198199458	3
45	23146	20.742422199458	1
45	23159	20.753856501664	3
45	23165	20.762080501664	1
45	23172	20.76208183592	3
45	23174	20.77030583592	1
45	23186	20.774437804177	3
45	23189	20.782661804177	1
45	23201	20.798937282149	3
45	23203	20.807161282149	1
45	23214	20.808845530008	3
45	23220	20.817069530008	1
45	23227	20.817070864264	3
45	23230	20.825294864264	1
45	23241	20.827037676036	3
45	23248	20.835261676036	1
45	23255	20.835263010292	3
45	23262	20.843487010292	1
45	23269	20.843488344548	3
45	23276	20.851712344548	1
45	23283	20.851713678804	3
45	23290	20.859937678804	1
45	23297	20.85993901306	3
45	23300	20.86816301306	1
45	23312	20.870355197602	3
45	23323	20.878579197602	1
45	23330	20.878580531858	3
45	23332	20.886804531858	1
45	23339	20.886805866114	3
45	23342	20.895029866114	1
45	23353	20.896572349969	3
45	23356	20.904796349969	1
45	23368	20.914264802991	3
45	23375	20.922488802991	1
45	23382	20.922490137247	3
45	23388	20.930714137247	1
45	23395	20.930715471503	3
45	23398	20.938939471503	1
45	23411	20.955163372524	3
45	23413	20.963387372524	1
45	23425	20.975613448635	3
45	23427	20.983837448635	1
45	23438	20.987047234091	3
45	23449	20.995271234091	1
45	23456	20.995272568347	3
45	23462	21.003496568347	1
45	23469	21.003497902603	3
45	23476	21.011721902603	1
45	23483	21.011723236859	3
45	23486	21.019947236859	1
45	23493	21.019948571115	3
45	23496	21.028172571115	1
45	23508	21.031923352747	3
45	23511	21.040147352747	1
45	23523	21.054905864806	3
45	23533	21.063129864806	1
45	23540	21.063131199062	3
45	23550	21.071355199062	1
45	23557	21.071356533318	3
45	23560	21.079580533318	1
45	23567	21.079581867574	3
45	23574	21.087805867574	1
45	23581	21.08780720183	3
45	23584	21.09603120183	1
45	23591	21.096032536086	3
45	23598	21.104256536086	1
45	23605	21.104257870342	3
45	23612	21.112481870342	1
45	23619	21.112483204598	3
45	23622	21.120707204598	1
45	23635	21.160713611612	3
45	23641	21.168937611612	1
45	23648	21.168938945868	3
45	23650	21.177162945868	1
45	23663	21.190169549659	3
45	23673	21.198393549659	1
45	23680	21.198394883915	3
45	23682	21.206618883915	1
45	23689	21.206620218171	3
45	23700	21.214844218171	1
45	23707	21.214845552427	3
45	23714	21.223069552427	1
45	23721	21.223070886683	3
45	23728	21.231294886683	1
45	23735	21.231296220939	3
45	23738	21.239520220939	1
45	23745	21.239521555195	3
45	23752	21.247745555195	1
45	23759	21.247746889451	3
45	23762	21.255970889451	1
45	23775	21.269393687362	3
45	23777	21.277617687362	1
45	23788	21.287023097127	3
45	23791	21.295247097127	1
45	23803	21.309763752616	3
45	23813	21.317987752616	1
45	23820	21.317989086872	3
45	23826	21.326213086872	1
45	23833	21.326214421128	3
45	23844	21.334438421128	1
45	23851	21.334439755384	3
45	23858	21.342663755384	1
45	23865	21.34266508964	3
45	23868	21.35088908964	1
45	23875	21.350890423896	3
45	23878	21.359114423896	1
45	23885	21.359115758152	3
45	23888	21.367339758152	1
45	23900	21.372240475856	3
45	23907	21.380464475856	1
45	23914	21.380465810112	3
45	23924	21.388689810112	1
45	23931	21.388691144368	3
45	23934	21.396915144368	1
45	23941	21.396916478624	3
45	23948	21.405140478624	1
45	23955	21.40514181288	3
45	23970	21.41336581288	1
45	23977	21.413367147136	3
45	23980	21.421591147136	1
45	23987	21.421592481392	3
45	23990	21.429816481392	1
45	23997	21.429817815648	3
45	24000	21.438041815648	1
45	24011	21.438295522086	3
45	24018	21.446519522086	1
45	24025	21.446520856342	3
45	24028	21.454744856342	1
45	24040	21.460236155122	3
45	24043	21.468460155122	1
45	24055	21.480042358212	3
45	24057	21.488266358212	1
45	24069	21.511453289658	3
45	24079	21.519677289658	1
45	24086	21.519678623914	3
45	24088	21.527902623914	1
45	24095	21.52790395817	3
45	24106	21.53612795817	1
45	24113	21.536129292426	3
45	24128	21.544353292426	1
45	24135	21.544354626682	3
45	24146	21.552578626682	1
45	24153	21.552579960938	3
45	24160	21.560803960938	1
45	24167	21.560805295194	3
45	24178	21.569029295194	1
45	24185	21.56903062945	3
45	24196	21.57725462945	1
45	24203	21.577255963706	3
45	24210	21.585479963706	1
45	24217	21.585481297962	3
45	24220	21.593705297962	1
45	24227	21.593706632218	3
45	24234	21.601930632218	1
45	24241	21.601931966474	3
45	24244	21.610155966474	1
45	24251	21.61015730073	3
45	24254	21.61838130073	1
45	24261	21.618382634986	3
45	24272	21.626606634986	1
45	24279	21.626607969242	3
45	24286	21.634831969242	1
45	24293	21.634833303498	3
45	24296	21.643057303498	1
45	24303	21.643058637754	3
45	24306	21.651282637754	1
45	24313	21.65128397201	3
45	24324	21.65950797201	1
45	24331	21.659509306266	3
45	24334	21.667733306266	1
45	24341	21.667734640522	3
45	24348	21.675958640522	1
45	24355	21.675959974778	3
45	24358	21.684183974778	1
45	24365	21.684185309034	3
45	24368	21.692409309034	1
45	24375	21.69241064329	3
45	24378	21.70063464329	1
45	24389	21.701576885571	3
45	24392	21.709800885571	1
45	24405	21.721263333156	3
45	24423	21.729487333156	1
45	24430	21.729488667412	3
45	24432	21.737712667412	1
45	24439	21.737714001668	3
45	24446	21.745938001668	1
45	24453	21.745939335924	3
45	24460	21.754163335924	1
45	24467	21.75416467018	3
45	24474	21.76238867018	1
45	24481	21.762390004436	3
45	24492	21.770614004436	1
45	24499	21.770615338692	3
45	24506	21.778839338692	1
45	24513	21.778840672948	3
45	24516	21.787064672948	1
45	24523	21.787066007204	3
45	24526	21.795290007204	1
45	24533	21.79529134146	3
45	24540	21.80351534146	1
45	24547	21.803516675716	3
45	24550	21.811740675716	1
45	24557	21.811742009972	3
45	24560	21.819966009972	1
45	24573	21.836784917709	3
45	24579	21.845008917709	1
45	24586	21.845010251965	3
45	24588	21.853234251965	1
45	24600	21.858216433689	3
45	24607	21.866440433689	1
45	24614	21.866441767945	3
45	24616	21.874665767945	1
45	24629	21.888226524028	3
45	24635	21.896450524028	1
45	24642	21.896451858284	3
45	24652	21.904675858284	1
45	24659	21.90467719254	3
45	24662	21.91290119254	1
45	24669	21.912902526796	3
45	24672	21.921126526796	1
45	24685	21.948358589516	3
45	24687	21.956582589516	1
45	24698	21.962831623577	3
45	24701	21.971055623577	1
45	24713	21.984959559906	3
45	24715	21.993183559906	1
45	24726	21.994994610234	3
45	24733	22.003218610234	1
45	24740	22.00321994449	3
45	24742	22.01144394449	1
45	24754	22.01443873924	3
45	24757	22.02266273924	1
45	24768	22.02346692159	3
45	24774	22.03169092159	1
45	24781	22.031692255846	3
45	24784	22.039916255846	1
45	24796	22.04816947022	3
45	24807	22.05639347022	1
45	24814	22.056394804476	3
45	24824	22.064618804476	1
45	24831	22.064620138732	3
45	24838	22.072844138732	1
45	24845	22.072845472988	3
45	24848	22.081069472988	1
45	24855	22.081070807244	3
45	24862	22.089294807244	1
45	24869	22.0892961415	3
45	24872	22.0975201415	1
45	24879	22.097521475756	3
45	24886	22.105745475756	1
45	24893	22.105746810012	3
45	24896	22.113970810012	1
45	24907	22.114599269943	3
45	24910	22.122823269943	1
45	24923	22.161144963891	3
45	24929	22.169368963891	1
45	24936	22.169370298147	3
45	24938	22.177594298147	1
45	24950	22.179512990448	3
45	24957	22.187736990448	1
45	24964	22.187738324704	3
45	24974	22.195962324704	1
45	24981	22.19596365896	3
45	24984	22.20418765896	1
45	24991	22.204188993216	3
45	25002	22.212412993216	1
45	25009	22.212414327472	3
45	25012	22.220638327472	1
45	25019	22.220639661728	3
45	25022	22.228863661728	1
45	25034	22.234252561494	3
45	25037	22.242476561494	1
45	25048	22.247254088712	3
45	25055	22.255478088712	1
45	25062	22.255479422968	3
45	25064	22.263703422968	1
45	25076	22.267975070292	3
45	25079	22.276199070292	1
45	25090	22.279833529807	3
45	25093	22.288057529807	1
45	25105	22.308077836934	3
45	25107	22.316301836934	1
45	25118	22.324652195943	3
45	25121	22.332876195943	1
45	25132	22.334534572435	3
45	25134	22.342758572435	1
45	25147	22.356269342849	3
45	25153	22.364493342849	1
45	25160	22.364494677105	3
45	25166	22.372718677105	1
45	25173	22.372720011361	3
45	25180	22.380944011361	1
45	25187	22.380945345617	3
45	25190	22.389169345617	1
45	25203	22.415232269085	3
45	25217	22.423456269085	1
45	25224	22.423457603341	3
45	25230	22.431681603341	1
45	25237	22.431682937597	3
45	25244	22.439906937597	1
45	25251	22.439908271853	3
45	25258	22.448132271853	1
45	25265	22.448133606109	3
45	25268	22.456357606109	1
45	25275	22.456358940365	3
45	25278	22.464582940365	1
45	25285	22.464584274621	3
45	25292	22.472808274621	1
45	25299	22.472809608877	3
45	25302	22.481033608877	1
45	25313	22.481309405633	3
45	25316	22.489533405633	1
45	25328	22.493014518274	3
45	25331	22.501238518274	1
45	25343	22.530486879332	3
45	25345	22.538710879332	1
45	25357	22.568607983425	3
45	25359	22.576831983425	1
45	25371	22.589473420773	3
45	25373	22.597697420773	1
45	25384	22.600703441893	3
45	25395	22.608927441893	1
45	25402	22.608928776149	3
45	25404	22.617152776149	1
45	25411	22.617154110405	3
45	25418	22.625378110405	1
45	25425	22.625379444661	3
45	25428	22.633603444661	1
45	25441	22.674291582968	3
45	25443	22.682515582968	1
45	25455	22.69474323055	3
45	25465	22.70296723055	1
45	25472	22.702968564806	3
45	25474	22.711192564806	1
45	25481	22.711193899062	3
45	25484	22.719417899062	1
45	25495	22.720112554727	3
45	25498	22.728336554727	1
45	25510	22.736460574602	3
45	25513	22.744684574602	1
45	25525	22.777412576311	3
45	25527	22.785636576311	1
45	25539	22.802350750987	3
45	25541	22.810574750987	1
45	25552	22.812084804912	3
45	25558	22.820308804912	1
45	25565	22.820310139168	3
45	25576	22.828534139168	1
45	25583	22.828535473424	3
45	25590	22.836759473424	1
45	25597	22.83676080768	3
45	25604	22.84498480768	1
45	25611	22.844986141936	3
45	25614	22.853210141936	1
45	25621	22.853211476192	3
45	25624	22.861435476192	1
45	25635	22.86249090894	3
45	25638	22.87071490894	1
45	25651	22.884810881378	3
45	25657	22.893034881378	1
45	25664	22.893036215634	3
45	25670	22.901260215634	1
45	25677	22.90126154989	3
45	25684	22.90948554989	1
45	25691	22.909486884146	3
45	25694	22.917710884146	1
45	25707	22.935866228387	3
45	25713	22.944090228387	1
45	25720	22.944091562643	3
45	25722	22.952315562643	1
45	25733	22.952712998372	3
45	25736	22.960936998372	1
45	25749	22.99494276935	3
45	25759	23.00316676935	1
45	25766	23.003168103606	3
45	25768	23.011392103606	1
45	25775	23.011393437862	3
45	25782	23.019617437862	1
45	25789	23.019618772118	3
45	25792	23.027842772118	1
45	25804	23.032285164911	3
45	25811	23.040509164911	1
45	25818	23.040510499167	3
45	25820	23.048734499167	1
45	25832	23.051667884725	3
45	25839	23.059891884725	1
45	25846	23.059893218981	3
45	25856	23.068117218981	1
45	25863	23.068118553237	3
45	25874	23.076342553237	1
45	25881	23.076343887493	3
45	25888	23.084567887493	1
45	25895	23.084569221749	3
45	25898	23.092793221749	1
45	25905	23.092794556005	3
45	25908	23.101018556005	1
45	25915	23.101019890261	3
45	25918	23.109243890261	1
45	25930	23.111398174554	3
45	25937	23.119622174554	1
45	25944	23.11962350881	3
45	25950	23.12784750881	1
45	25957	23.127848843066	3
45	25964	23.136072843066	1
45	25971	23.136074177322	3
45	25974	23.144298177322	1
45	25987	23.16657832293	3
45	25993	23.17480232293	1
45	26000	23.174803657186	3
45	26002	23.183027657186	1
45	26015	23.198287360268	3
45	26021	23.206511360268	1
45	26028	23.206512694524	3
45	26038	23.214736694524	1
45	26045	23.21473802878	3
45	26056	23.22296202878	1
45	26063	23.222963363036	3
45	26070	23.231187363036	1
45	26077	23.231188697292	3
45	26080	23.239412697292	1
45	26087	23.239414031548	3
45	26090	23.247638031548	1
45	26097	23.247639365804	3
45	26104	23.255863365804	1
45	26111	23.25586470006	3
45	26114	23.26408870006	1
45	26127	23.290929837752	3
45	26129	23.299153837752	1
45	26140	23.299710639849	3
45	26142	23.307934639849	1
45	26155	23.324202504599	3
45	26157	23.332426504599	1
45	26168	23.335445679657	3
45	26179	23.343669679657	1
45	26186	23.343671013913	3
45	26192	23.351895013913	1
45	26199	23.351896348169	3
45	26210	23.360120348169	1
45	26217	23.360121682425	3
45	26224	23.368345682425	1
45	26231	23.368347016681	3
45	26242	23.376571016681	1
45	26249	23.376572350937	3
45	26252	23.384796350937	1
45	26259	23.384797685193	3
45	26262	23.393021685193	1
45	26269	23.393023019449	3
45	26276	23.401247019449	1
45	26283	23.401248353705	3
45	26298	23.409472353705	1
45	26305	23.409473687961	3
45	26308	23.417697687961	1
45	26315	23.417699022217	3
45	26318	23.425923022217	1
45	26325	23.425924356473	3
45	26328	23.434148356473	1
45	26335	23.434149690729	3
45	26350	23.442373690729	1
45	26357	23.442375024985	3
45	26360	23.450599024985	1
45	26367	23.450600359241	3
45	26370	23.458824359241	1
45	26377	23.458825693497	3
45	26384	23.467049693497	1
45	26391	23.467051027753	3
45	26398	23.475275027753	1
45	26405	23.475276362009	3
45	26412	23.483500362009	1
45	26419	23.483501696265	3
45	26422	23.491725696265	1
45	26434	23.501271441066	3
45	26437	23.509495441066	1
45	26448	23.51248430611	3
45	26451	23.52070830611	1
45	26463	23.550380085376	3
45	26465	23.558604085376	1
45	26476	23.565188441804	3
45	26483	23.573412441804	1
45	26490	23.57341377606	3
45	26496	23.58163777606	1
45	26503	23.581639110316	3
45	26506	23.589863110316	1
45	26517	23.591630604312	3
45	26520	23.599854604312	1
45	26533	23.611061871822	3
45	26539	23.619285871822	1
45	26546	23.619287206078	3
45	26552	23.627511206078	1
45	26559	23.627512540334	3
45	26562	23.635736540334	1
45	26575	23.647572003743	3
45	26577	23.655796003743	1
45	26588	23.664056513312	3
45	26591	23.672280513312	1
45	26602	23.672674380533	3
45	26608	23.680898380533	1
45	26615	23.680899714789	3
45	26618	23.689123714789	1
45	26629	23.689591313905	3
45	26632	23.697815313905	1
45	26644	23.704226188278	3
45	26647	23.712450188278	1
45	26659	23.734980237548	3
45	26661	23.743204237548	1
45	26672	23.746497984492	3
45	26675	23.754721984492	1
45	26687	23.772751321536	3
45	26689	23.780975321536	1
45	26700	23.787249374478	3
45	26707	23.795473374478	1
45	26714	23.795474708734	3
45	26724	23.803698708734	1
45	26731	23.80370004299	3
45	26742	23.81192404299	1
45	26749	23.811925377246	3
45	26756	23.820149377246	1
45	26763	23.820150711502	3
45	26770	23.828374711502	1
45	26777	23.828376045758	3
45	26780	23.836600045758	1
45	26787	23.836601380014	3
45	26806	23.844825380014	1
45	26813	23.84482671427	3
45	26816	23.85305071427	1
45	26823	23.853052048526	3
45	26838	23.861276048526	1
45	26845	23.861277382782	3
45	26848	23.869501382782	1
45	26855	23.869502717038	3
45	26858	23.877726717038	1
45	26865	23.877728051294	3
45	26868	23.885952051294	1
45	26875	23.88595338555	3
45	26882	23.89417738555	1
45	26889	23.894178719806	3
45	26900	23.902402719806	1
45	26907	23.902404054062	3
45	26910	23.910628054062	1
45	26917	23.910629388318	3
45	26920	23.918853388318	1
45	26927	23.918854722574	3
45	26934	23.927078722574	1
45	26941	23.92708005683	3
45	26944	23.93530405683	1
45	26951	23.935305391086	3
45	26954	23.943529391086	1
45	26967	23.97072372667	3
45	26977	23.97894772667	1
45	26984	23.978949060926	3
45	26994	23.987173060926	1
45	27001	23.987174395182	3
45	27004	23.995398395182	1
45	27011	23.995399729438	3
45	27014	24.003623729438	1
45	27021	24.003625063694	3
45	27028	24.011849063694	1
45	27035	24.01185039795	3
45	27042	24.02007439795	1
45	27049	24.020075732206	3
45	27052	24.028299732206	1
45	27064	24.034435054069	3
45	27075	24.042659054069	1
45	27082	24.042660388325	3
45	27084	24.050884388325	1
45	27091	24.050885722581	3
45	27102	24.059109722581	1
45	27109	24.059111056837	3
45	27116	24.067335056837	1
45	27123	24.067336391093	3
45	27126	24.075560391093	1
45	27133	24.075561725349	3
45	27136	24.083785725349	1
45	27149	24.101229617011	3
45	27155	24.109453617011	1
45	27162	24.109454951267	3
45	27164	24.117678951267	1
45	27175	24.119020311947	3
45	27178	24.127244311947	1
45	27190	24.130291766779	3
45	27205	24.138515766779	1
45	27212	24.138517101035	3
45	27218	24.146741101035	1
45	27225	24.146742435291	3
45	27228	24.154966435291	1
45	27235	24.154967769547	3
45	27238	24.163191769547	1
45	27245	24.163193103803	3
45	27248	24.171417103803	1
45	27260	24.176378805319	3
45	27263	24.184602805319	1
45	27274	24.188782770052	3
45	27277	24.197006770052	1
45	27288	24.203816519298	3
45	27295	24.212040519298	1
45	27302	24.212041853554	3
45	27304	24.220265853554	1
45	27316	24.222452051388	3
45	27323	24.230676051388	1
45	27330	24.230677385644	3
45	27332	24.238901385644	1
45	27345	24.24920256064	3
45	27347	24.25742656064	1
45	27358	24.266367654126	3
45	27361	24.274591654126	1
45	27373	24.342200311878	3
45	27383	24.350424311878	1
45	27390	24.350425646134	3
45	27396	24.358649646134	1
45	27403	24.35865098039	3
45	27406	24.36687498039	1
45	27413	24.366876314646	3
45	27416	24.375100314646	1
45	27429	24.391096982577	3
45	27431	24.399320982577	1
45	27442	24.409314895563	3
45	27449	24.417538895563	1
45	27456	24.417540229819	3
45	27462	24.425764229819	1
45	27469	24.425765564075	3
45	27484	24.433989564075	1
45	27491	24.433990898331	3
45	27494	24.442214898331	1
45	27501	24.442216232587	3
45	27504	24.450440232587	1
45	27511	24.450441566843	3
45	27514	24.458665566843	1
45	27527	24.471368827769	3
45	27533	24.479592827769	1
45	27540	24.479594162025	3
45	27542	24.487818162025	1
45	27555	24.509786625777	3
45	27561	24.518010625777	1
45	27568	24.518011960033	3
45	27582	24.526235960033	1
45	27589	24.526237294289	3
45	27600	24.534461294289	1
45	27607	24.534462628545	3
45	27610	24.542686628545	1
45	27617	24.542687962801	3
45	27624	24.550911962801	1
45	27631	24.550913297057	3
45	27634	24.559137297057	1
45	27641	24.559138631313	3
45	27652	24.567362631313	1
45	27659	24.567363965569	3
45	27662	24.575587965569	1
45	27669	24.575589299825	3
45	27672	24.583813299825	1
45	27679	24.583814634081	3
45	27682	24.592038634081	1
45	27694	24.597177243359	3
45	27697	24.605401243359	1
45	27708	24.612497632477	3
45	27715	24.620721632477	1
45	27722	24.620722966733	3
45	27724	24.628946966733	1
45	27736	24.631565814567	3
45	27739	24.639789814567	1
45	27750	24.647363912403	3
45	27757	24.655587912403	1
45	27764	24.655589246659	3
45	27774	24.663813246659	1
45	27781	24.663814580915	3
45	27784	24.672038580915	1
45	27791	24.672039915171	3
45	27798	24.680263915171	1
45	27805	24.680265249427	3
45	27808	24.688489249427	1
45	27821	24.702565732798	3
45	27827	24.710789732798	1
45	27834	24.710791067054	3
45	27836	24.719015067054	1
45	27849	24.729820420402	3
45	27855	24.738044420402	1
45	27862	24.738045754658	3
45	27868	24.746269754658	1
45	27875	24.746271088914	3
45	27882	24.754495088914	1
45	27889	24.75449642317	3
45	27892	24.76272042317	1
45	27904	24.768338050915	3
45	27907	24.776562050915	1
45	27918	24.783665097095	3
45	27925	24.791889097095	1
45	27932	24.791890431351	3
45	27934	24.800114431351	1
45	27946	24.803904015459	3
45	27949	24.812128015459	1
45	27960	24.812264412305	3
45	27962	24.820488412305	1
45	27975	24.832289475707	3
45	27981	24.840513475707	1
45	27988	24.840514809963	3
45	27990	24.848738809963	1
45	28001	24.848933352691	3
45	28008	24.857157352691	1
45	28015	24.857158686947	3
45	28022	24.865382686947	1
45	28029	24.865384021203	3
45	28036	24.873608021203	1
45	28043	24.873609355459	3
45	28054	24.881833355459	1
45	28061	24.881834689715	3
45	28072	24.890058689715	1
45	28079	24.890060023971	3
45	28086	24.898284023971	1
45	28093	24.898285358227	3
45	28116	24.906509358227	1
45	28123	24.906510692483	3
45	28130	24.914734692483	1
45	28137	24.914736026739	3
45	28140	24.922960026739	1
45	28147	24.922961360995	3
45	28154	24.931185360995	1
45	28161	24.931186695251	3
45	28168	24.939410695251	1
45	28175	24.939412029507	3
45	28178	24.947636029507	1
45	28185	24.947637363763	3
45	28188	24.955861363763	1
45	28195	24.955862698019	3
45	28198	24.964086698019	1
45	28205	24.964088032275	3
45	28220	24.972312032275	1
45	28227	24.972313366531	3
45	28234	24.980537366531	1
45	28241	24.980538700787	3
45	28248	24.988762700787	1
45	28255	24.988764035043	3
45	28258	24.996988035043	1
45	28265	24.996989369299	3
46	0	0	1
