version 2
run Wireless14-0-20170408-20:35:58-11236
attr configname Wireless14
attr datetime 20170408-20:35:58
attr experiment Wireless14
attr inifile omnetpp.ini
attr iterationvars ""
attr iterationvars2 $repetition=0
attr measurement ""
attr network WirelessC
attr processid 11236
attr repetition 0
attr replication #0
attr resultdir results
attr runnumber 0
attr seedset 0
param *.configurator.addStaticRoutes false
param *.configurator.config "xml(\"<config><interface hosts='**' address='10.0.0.x' netmask='255.255.255.0'/><autoroute metric='errorRate'/></config>\")"
param *.configurator.optimizeRoutes false
param *.host*.**.bitrate 1Mbps
param *.host*.energyStorageType "\"IdealEnergyStorage\""
param *.host*.forwarding true
param *.host*.mobility.initialZ 1.7m
param *.host*.networkLayer.arpType "\"GlobalARP\""
param *.host*.routingTable.netmaskRoutes "\"\""
param *.host*.wlan[0].mac.fullDuplex false
param *.host*.wlan[0].mac.maxQueueSize 10
param *.host*.wlan[0].mac.useAck false
param *.host*.wlan[0].macType "\"CsmaCaMac\""
param *.host*.wlan[0].radio.antenna.gain 3dB
param *.host*.wlan[0].radio.antennaType "\"ConstantGainAntenna\""
param *.host*.wlan[0].radio.bandwidth 2MHz
param *.host*.wlan[0].radio.carrierFrequency 2GHz
param *.host*.wlan[0].radio.displayCommunicationRange true
param *.host*.wlan[0].radio.energyConsumer transmitterIdlePowerConsumption 2mW
param *.host*.wlan[0].radio.energyConsumer.offPowerConsumption 0mW
param *.host*.wlan[0].radio.energyConsumer.receiverBusyPowerConsumption 5mW
param *.host*.wlan[0].radio.energyConsumer.receiverIdlePowerConsumption 2mW
param *.host*.wlan[0].radio.energyConsumer.receiverReceivingPowerConsumption 10mW
param *.host*.wlan[0].radio.energyConsumer.sleepPowerConsumption 1mW
param *.host*.wlan[0].radio.energyConsumer.switchingPowerConsumption 1mW
param *.host*.wlan[0].radio.energyConsumer.transmitterTransmittingPowerConsumption 100mW
param *.host*.wlan[0].radio.energyConsumerType "\"StateBasedEnergyConsumer\""
param *.host*.wlan[0].radio.receiver.energyDetection -85dBm
param *.host*.wlan[0].radio.receiver.ignoreInterference true
param *.host*.wlan[0].radio.receiver.sensitivity -85dBm
param *.host*.wlan[0].radio.receiver.snirThreshold 4dB
param *.host*.wlan[0].radio.transmitter.communicationRange 1000m
param *.host*.wlan[0].radio.transmitter.headerBitLength 0b
param *.host*.wlan[0].radio.transmitter.interferenceRange 500m
param *.host*.wlan[0].radio.transmitter.power 1.4mW
param *.host*.wlan[0].radio.transmitter.preambleDuration 10us
param *.host*.wlan[0].radioType "\"IdealRadio\""
param *.host*.wlan[0].typename "\"IdealWirelessNic\""
param *.hostA.numUdpApps 1
param *.hostA.udpApp[0].destAddresses "\"hostB\""
param *.hostA.udpApp[0].destPort 5000
param *.hostA.udpApp[0].messageLength 1000B
param *.hostA.udpApp[0].packetName "\"UDPData\""
param *.hostA.udpApp[0].sendInterval exponential(12ms)
param *.hostA.udpApp[0].typename "\"UDPBasicApp\""
param *.hostA.wlan[0].radio.displayInterferenceRange true
param *.hostB.numUdpApps 1
param *.hostB.udpApp[0].localPort 5000
param *.hostB.udpApp[0].typename "\"UDPSink\""
param *.hostR*.mobility.angle 270deg
param *.hostR*.mobilityType "\"LinearMobility\""
param *.mediumType "\"APSKScalarRadioMedium\""
param *.physicalEnvironment.config "xmldoc(\"walls.xml\")"
param *.physicalEnvironment.ground.elevation 0m
param *.physicalEnvironment.groundType "\"FlatGround\""
param *.radioMedium.backgroundNoise.power -90dBm
param *.radioMedium.mediumLimitCache.carrierFrequency 2GHz
param *.radioMedium.obstacleLossType "\"IdealObstacleLoss\""
param *.radioMedium.pathLossType "\"TwoRayGroundReflection\""
param *.visualizer.dataLinkVisualizer.packetNameFilter "\"UDPData*\""
param *.visualizer.mediumVisualizer.displaySignals true
param *.visualizer.mediumVisualizer.signalPropagationUpdateInterval 100ns
param *.visualizer.mobilityVisualizer.displayMovementTrail true
param *.visualizer.networkRouteVisualizer.packetNameFilter "\"UDPData*\""
param *.visualizer.physicalLinkVisualizer.packetNameFilter "\"UDPData*\""
param *.visualizer.sceneVisualizer.descriptionFigure "\"title\""

vector 0  WirelessC.hostA.energyStorage  powerConsumption:vector  ETV
attr interpolationmode  sample-hold
attr source  powerConsumptionChanged
attr title  "Power consumption, vector"
vector 19  WirelessC.hostB.energyStorage  powerConsumption:vector  ETV
attr interpolationmode  sample-hold
attr source  powerConsumptionChanged
attr title  "Power consumption, vector"
vector 37  WirelessC.hostR1.energyStorage  powerConsumption:vector  ETV
attr interpolationmode  sample-hold
attr source  powerConsumptionChanged
attr title  "Power consumption, vector"
vector 47  WirelessC.hostR2.energyStorage  powerConsumption:vector  ETV
attr interpolationmode  sample-hold
attr source  powerConsumptionChanged
attr title  "Power consumption, vector"
vector 57  WirelessC.hostR3.energyStorage  powerConsumption:vector  ETV
attr interpolationmode  sample-hold
attr source  powerConsumptionChanged
attr title  "Power consumption, vector"
vector 15  WirelessC.hostA.wlan[0].radio  radioMode:vector  ETV
attr interpolationmode  sample-hold
attr source  radioModeChanged
attr title  "Radio mode, vector"
vector 33  WirelessC.hostB.wlan[0].radio  radioMode:vector  ETV
attr interpolationmode  sample-hold
attr source  radioModeChanged
attr title  "Radio mode, vector"
vector 43  WirelessC.hostR1.wlan[0].radio  radioMode:vector  ETV
attr interpolationmode  sample-hold
attr source  radioModeChanged
attr title  "Radio mode, vector"
vector 53  WirelessC.hostR2.wlan[0].radio  radioMode:vector  ETV
attr interpolationmode  sample-hold
attr source  radioModeChanged
attr title  "Radio mode, vector"
vector 63  WirelessC.hostR3.wlan[0].radio  radioMode:vector  ETV
attr interpolationmode  sample-hold
attr source  radioModeChanged
attr title  "Radio mode, vector"
vector 16  WirelessC.hostA.wlan[0].radio  receptionState:vector  ETV
attr interpolationmode  sample-hold
attr source  receptionStateChanged
attr title  "Radio reception state, vector"
vector 34  WirelessC.hostB.wlan[0].radio  receptionState:vector  ETV
attr interpolationmode  sample-hold
attr source  receptionStateChanged
attr title  "Radio reception state, vector"
vector 44  WirelessC.hostR1.wlan[0].radio  receptionState:vector  ETV
attr interpolationmode  sample-hold
attr source  receptionStateChanged
attr title  "Radio reception state, vector"
vector 54  WirelessC.hostR2.wlan[0].radio  receptionState:vector  ETV
attr interpolationmode  sample-hold
attr source  receptionStateChanged
attr title  "Radio reception state, vector"
vector 64  WirelessC.hostR3.wlan[0].radio  receptionState:vector  ETV
attr interpolationmode  sample-hold
attr source  receptionStateChanged
attr title  "Radio reception state, vector"
vector 4  WirelessC.hostA.udpApp[0]  sentPk:vector(packetBytes)  ETV
attr interpolationmode  none
attr source  sentPk
attr title  "packets sent, vector(packetBytes)"
vector 7  WirelessC.hostA.udp  sentPk:vector(packetBytes)  ETV
attr interpolationmode  none
attr source  sentPk
attr title  "packets sent, vector(packetBytes)"
0	0	0	0
4	16	0.015071169097	1000
4	20	0.02197739946	1000
4	23	0.048659692524	1000
4	26	0.088438639883	1000
4	29	0.094241865142	1000
4	32	0.113068618553	1000
4	35	0.122100707913	1000
4	38	0.132173902148	1000
4	41	0.163352951178	1000
4	44	0.164237175444	1000
4	47	0.165331107757	1000
4	50	0.165576214818	1000
4	53	0.187026066779	1000
4	56	0.205095477883	1000
4	59	0.229579248978	1000
4	62	0.275721911408	1000
4	65	0.294984786093	1000
4	68	0.302411939609	1000
4	71	0.320610371297	1000
4	74	0.32212086421	1000
4	77	0.334378046702	1000
4	80	0.336234802868	1000
4	83	0.370967848604	1000
4	86	0.379821776105	1000
4	89	0.386248564748	1000
4	92	0.389935928974	1000
4	95	0.407794986883	1000
4	98	0.415103975961	1000
4	101	0.425187992428	1000
4	104	0.425415615258	1000
4	107	0.436952186527	1000
4	110	0.448316146653	1000
4	113	0.459830722381	1000
4	116	0.494365702636	1000
4	119	0.508107370092	1000
4	122	0.513453592033	1000
4	125	0.520347980914	1000
4	128	0.534701274507	1000
4	131	0.535446657993	1000
4	134	0.548633607604	1000
4	137	0.561960776952	1000
4	140	0.564795257425	1000
4	143	0.566451601686	1000
4	146	0.570999145257	1000
4	149	0.57642436998	1000
4	152	0.586557503502	1000
4	155	0.593485395232	1000
4	158	0.646939357386	1000
4	161	0.648230978684	1000
4	164	0.651042596909	1000
4	167	0.653153559454	1000
4	170	0.665858472035	1000
4	173	0.669363438434	1000
4	176	0.676898737406	1000
4	179	0.680262061508	1000
4	182	0.682339590982	1000
4	185	0.6837430559	1000
4	188	0.696559922266	1000
4	191	0.698344469497	1000
4	194	0.700971036655	1000
4	197	0.706491204148	1000
4	200	0.727135184041	1000
4	203	0.728360922619	1000
4	206	0.75019874965	1000
4	209	0.751411166954	1000
4	212	0.796399544469	1000
4	215	0.803987583626	1000
4	218	0.84913071104	1000
4	221	0.860272453003	1000
4	224	0.876403396269	1000
4	227	0.876883111858	1000
4	230	0.88087203475	1000
4	233	0.882408715934	1000
4	236	0.886622829007	1000
4	239	0.888139492644	1000
4	242	0.89273190403	1000
4	245	0.899150516539	1000
4	248	0.899946085357	1000
4	251	0.914096359682	1000
4	254	0.924129530066	1000
4	257	0.927830508147	1000
4	260	0.936719615552	1000
4	263	0.937903419253	1000
4	266	0.948198166946	1000
4	269	0.97998923809	1000
4	272	0.984591960659	1000
4	275	0.99780211158	1000
4	278	0.999498080143	1000
4	281	1.014617285864	1000
4	284	1.018717135868	1000
4	287	1.021145341131	1000
4	290	1.031742889635	1000
4	293	1.031986639141	1000
4	296	1.05317553201	1000
4	299	1.053232010496	1000
4	302	1.0668236202	1000
4	305	1.07060028013	1000
4	308	1.086545374615	1000
4	311	1.125847092748	1000
4	314	1.129279344418	1000
4	317	1.139580060032	1000
4	320	1.150339150481	1000
4	323	1.16052980022	1000
4	326	1.163558840135	1000
4	329	1.200186220018	1000
4	332	1.207297708347	1000
4	335	1.229779226905	1000
4	338	1.244206089712	1000
4	341	1.248442331311	1000
4	344	1.268613397766	1000
4	347	1.274673622739	1000
4	350	1.300227615492	1000
4	353	1.310674045408	1000
4	356	1.336292010808	1000
4	359	1.350444606012	1000
4	362	1.365947517238	1000
4	365	1.374297110769	1000
4	368	1.411802731061	1000
4	371	1.424196295189	1000
4	374	1.430813047071	1000
4	377	1.442001881636	1000
4	380	1.442234439012	1000
4	383	1.446541565602	1000
4	386	1.459493407986	1000
4	389	1.463604603482	1000
4	392	1.475153104151	1000
4	395	1.481872636992	1000
4	398	1.483619524733	1000
4	401	1.48787021432	1000
4	404	1.497996875991	1000
4	407	1.508721624931	1000
4	410	1.518970581759	1000
4	413	1.531678694384	1000
4	416	1.544348889688	1000
4	419	1.551124215701	1000
4	422	1.578347823613	1000
4	425	1.58384589822	1000
4	428	1.590715436837	1000
4	431	1.617414412724	1000
4	434	1.637105183659	1000
4	437	1.651709417603	1000
4	440	1.652976769327	1000
4	443	1.683208154888	1000
4	446	1.698239445187	1000
4	449	1.779424131426	1000
4	452	1.781366572467	1000
4	455	1.805677478272	1000
4	458	1.807805385174	1000
4	461	1.819276982261	1000
4	464	1.820863186776	1000
4	467	1.843470333415	1000
4	470	1.863230962631	1000
4	473	1.873333534172	1000
4	476	1.879607974533	1000
4	479	1.880468079145	1000
4	482	1.89481334194	1000
4	485	1.902064930802	1000
4	488	1.917428941248	1000
4	491	1.941582214082	1000
4	494	1.986101741185	1000
4	497	2.009340668035	1000
4	500	2.009482066818	1000
4	503	2.014837100664	1000
4	506	2.030548681032	1000
4	509	2.032808220735	1000
4	512	2.041641793935	1000
4	515	2.04231223457	1000
4	518	2.044989905067	1000
4	521	2.045214250712	1000
4	524	2.064155203377	1000
4	527	2.067197271839	1000
4	530	2.072281157055	1000
4	533	2.103867783406	1000
4	536	2.118493345046	1000
4	539	2.118881626702	1000
4	542	2.121041114801	1000
4	545	2.132698900698	1000
4	548	2.143029984338	1000
4	551	2.146290001182	1000
4	554	2.178946180253	1000
4	557	2.190368136744	1000
4	560	2.199573092599	1000
4	563	2.210269635522	1000
4	566	2.225987059978	1000
4	569	2.230473697929	1000
4	572	2.236568079401	1000
4	575	2.239394374282	1000
4	578	2.241866758864	1000
4	581	2.276535665967	1000
4	584	2.292679835166	1000
4	587	2.300770770002	1000
4	590	2.303866923169	1000
4	593	2.307389014992	1000
4	596	2.308106386547	1000
4	599	2.314945157331	1000
4	602	2.319429194864	1000
4	605	2.333731492108	1000
4	608	2.339424487592	1000
4	611	2.341800100416	1000
4	614	2.342099960656	1000
4	617	2.342935372709	1000
4	620	2.356585834775	1000
4	623	2.363840809395	1000
4	626	2.373070247008	1000
4	629	2.400308327197	1000
4	632	2.455984157513	1000
4	635	2.458918049778	1000
4	638	2.471972902981	1000
4	641	2.475640161803	1000
4	644	2.475890568426	1000
4	647	2.492935169893	1000
4	650	2.497563422222	1000
4	653	2.503367082872	1000
4	656	2.514017106014	1000
4	659	2.535354826056	1000
4	662	2.547252877571	1000
4	665	2.571982732462	1000
4	668	2.57581762832	1000
4	671	2.595014261622	1000
4	674	2.597478434847	1000
4	677	2.634116650882	1000
4	680	2.648074010283	1000
4	683	2.650986632207	1000
4	686	2.686320395536	1000
4	689	2.702070491452	1000
4	692	2.705585908954	1000
4	695	2.708464991187	1000
4	698	2.71722772317	1000
4	701	2.717539696112	1000
4	704	2.720329996333	1000
4	707	2.726964056781	1000
4	710	2.732588174493	1000
4	713	2.74006212621	1000
4	716	2.743964718426	1000
4	719	2.754570146298	1000
4	722	2.778498616713	1000
4	725	2.779999007792	1000
4	728	2.788741293905	1000
4	731	2.790440998323	1000
4	734	2.805582750405	1000
4	737	2.811634109604	1000
4	740	2.821634648492	1000
4	743	2.824064153656	1000
4	746	2.825941862901	1000
4	749	2.833976349991	1000
4	752	2.839249814677	1000
4	755	2.873097446058	1000
4	758	2.890492103375	1000
4	761	2.907063660523	1000
4	764	2.935149564051	1000
4	767	2.93619486705	1000
4	770	2.945835568202	1000
4	773	2.956374149147	1000
4	776	2.995596105957	1000
4	779	2.999742340962	1000
4	782	3.003048676206	1000
4	785	3.004316922295	1000
4	788	3.004515715428	1000
4	791	3.036346417614	1000
4	794	3.049647334665	1000
4	797	3.068101279239	1000
4	800	3.072072197813	1000
4	803	3.082666764352	1000
4	806	3.08345986848	1000
4	809	3.091437561475	1000
4	812	3.136965846872	1000
4	815	3.162064525743	1000
4	818	3.167017284144	1000
4	821	3.20612433587	1000
4	824	3.209287261224	1000
4	827	3.24507366933	1000
4	830	3.279113351651	1000
4	833	3.298378856808	1000
4	836	3.310324420528	1000
4	839	3.335209558085	1000
4	842	3.33937059773	1000
4	845	3.362051818107	1000
4	848	3.373595961226	1000
4	851	3.373755864164	1000
4	854	3.378874293908	1000
4	857	3.380798303042	1000
4	860	3.4288936989	1000
4	863	3.436703267008	1000
4	866	3.44495858875	1000
4	869	3.457200833805	1000
4	872	3.462718329618	1000
4	875	3.464485030066	1000
4	878	3.485204630623	1000
4	881	3.487731030081	1000
4	884	3.496323573897	1000
4	887	3.499371710437	1000
4	890	3.500607330802	1000
4	893	3.524390014895	1000
4	896	3.567697306955	1000
4	899	3.606576862558	1000
4	902	3.635021513525	1000
4	905	3.652870670577	1000
4	908	3.657732865165	1000
4	911	3.658747819066	1000
4	914	3.66502343091	1000
4	917	3.66819467648	1000
4	920	3.669900182617	1000
4	923	3.670559071088	1000
4	926	3.686076845394	1000
4	929	3.686214764397	1000
4	932	3.703881214293	1000
4	935	3.705788412449	1000
4	938	3.706782759724	1000
4	941	3.707909254291	1000
4	944	3.721287903354	1000
4	947	3.724666191624	1000
4	950	3.731214084201	1000
4	953	3.740994304172	1000
4	956	3.764634994959	1000
4	959	3.780216342586	1000
4	962	3.783998262931	1000
4	965	3.785689877544	1000
4	968	3.786373475934	1000
4	971	3.790681011755	1000
4	974	3.794328670466	1000
4	977	3.80163744393	1000
4	980	3.815434340583	1000
4	983	3.829708295599	1000
4	986	3.83370913566	1000
4	989	3.83944415151	1000
4	992	3.841842417965	1000
4	995	3.860487363989	1000
4	998	3.861189698776	1000
4	1001	3.875517859223	1000
4	1004	3.893616442003	1000
4	1007	3.911645395528	1000
4	1010	3.915249296491	1000
4	1013	3.92086657393	1000
4	1016	3.931495701682	1000
4	1019	3.935318707857	1000
4	1022	3.940879388187	1000
4	1025	3.943513006118	1000
4	1028	3.950904037523	1000
4	1031	3.951451694117	1000
4	1034	3.970752708306	1000
4	1037	3.971713654577	1000
4	1040	3.980492198647	1000
4	1043	3.984889614149	1000
4	1046	3.995229624051	1000
4	1049	4.033687330006	1000
4	1052	4.046134271135	1000
4	1055	4.046566305092	1000
4	1058	4.053320207514	1000
4	1061	4.061880818908	1000
4	1064	4.07109985901	1000
4	1067	4.084825403559	1000
4	1070	4.088727454005	1000
4	1073	4.090382892788	1000
4	1076	4.096367200782	1000
4	1079	4.133961154657	1000
4	1082	4.136447376844	1000
4	1085	4.164566256005	1000
4	1088	4.17398430024	1000
4	1091	4.18131009438	1000
4	1094	4.206959154665	1000
4	1097	4.214322405182	1000
4	1100	4.229777948883	1000
4	1103	4.235888378725	1000
4	1106	4.264014814415	1000
4	1109	4.278069978754	1000
4	1112	4.29250254416	1000
4	1115	4.29726751556	1000
4	1118	4.314232915514	1000
4	1121	4.326362145471	1000
4	1124	4.329655707735	1000
4	1127	4.331755648314	1000
4	1130	4.350854321788	1000
4	1133	4.389233381509	1000
4	1136	4.396586326847	1000
4	1139	4.407314343679	1000
4	1142	4.430714066621	1000
4	1145	4.438046757356	1000
4	1148	4.474454068225	1000
4	1151	4.484743289456	1000
4	1154	4.505372121197	1000
4	1157	4.53411427867	1000
4	1160	4.554397098127	1000
4	1163	4.556480976886	1000
4	1166	4.568376330955	1000
4	1169	4.574474964404	1000
4	1172	4.575252152717	1000
4	1175	4.581872596068	1000
4	1178	4.585464536657	1000
4	1181	4.60815328651	1000
4	1184	4.608559748773	1000
4	1187	4.646884891245	1000
4	1190	4.652153815072	1000
4	1193	4.657447672801	1000
4	1196	4.657645232209	1000
4	1199	4.660103459415	1000
4	1202	4.666258583317	1000
4	1205	4.698048842464	1000
4	1208	4.699308035432	1000
4	1211	4.734179070676	1000
4	1214	4.758614600923	1000
4	1217	4.765879806303	1000
4	1220	4.770626593508	1000
4	1223	4.77380581276	1000
4	1226	4.785243283219	1000
4	1229	4.78564689027	1000
4	1232	4.785835639755	1000
4	1235	4.792555740235	1000
4	1238	4.793401763615	1000
4	1241	4.796885044596	1000
4	1244	4.799884454396	1000
4	1247	4.803387807257	1000
4	1250	4.80507351586	1000
4	1253	4.805218826801	1000
4	1256	4.806691406889	1000
4	1259	4.818254519244	1000
4	1262	4.862169264666	1000
4	1265	4.917852624617	1000
4	1268	4.924164994166	1000
4	1271	4.92629951526	1000
4	1274	4.938518126206	1000
4	1277	4.946605447537	1000
4	1280	5.001179333759	1000
4	1283	5.001989743642	1000
4	1286	5.020337010091	1000
4	1289	5.024419856726	1000
4	1292	5.027735519041	1000
4	1295	5.040769958775	1000
4	1298	5.044159319319	1000
4	1301	5.057313630051	1000
4	1304	5.066054160927	1000
4	1307	5.072675786387	1000
4	1310	5.082383542729	1000
4	1313	5.086443696153	1000
4	1316	5.1011572827	1000
4	1319	5.107588068244	1000
4	1322	5.112953747075	1000
4	1325	5.134122795781	1000
4	1328	5.165200709527	1000
4	1331	5.16576590078	1000
4	1334	5.16894328806	1000
4	1337	5.17408537931	1000
4	1340	5.194331998775	1000
4	1343	5.245128188331	1000
4	1346	5.286802456802	1000
4	1349	5.315042474019	1000
4	1352	5.319263682644	1000
4	1355	5.37722032562	1000
4	1358	5.380663234765	1000
4	1361	5.382006569259	1000
4	1364	5.418186188525	1000
4	1367	5.421375987113	1000
4	1370	5.435421215873	1000
4	1373	5.436142756303	1000
4	1376	5.451886313276	1000
4	1379	5.47750274201	1000
4	1382	5.481319396552	1000
4	1385	5.487037586404	1000
4	1388	5.492664124272	1000
4	1391	5.50924163323	1000
4	1394	5.51250030273	1000
4	1397	5.514763079421	1000
4	1400	5.521921678424	1000
4	1403	5.526278624506	1000
4	1406	5.54820893972	1000
4	1409	5.551466579317	1000
4	1412	5.559841829903	1000
4	1415	5.594130934077	1000
4	1418	5.60619232186	1000
4	1421	5.630427335899	1000
4	1424	5.664230276659	1000
4	1427	5.680902578742	1000
4	1430	5.695333266879	1000
4	1433	5.73662459545	1000
4	1436	5.798846148526	1000
4	1439	5.806060004283	1000
4	1442	5.806942080812	1000
4	1445	5.811099280742	1000
4	1448	5.81308279689	1000
4	1451	5.819567629261	1000
4	1454	5.821256571126	1000
4	1457	5.83237623433	1000
4	1460	5.838167136912	1000
4	1463	5.865256858401	1000
4	1466	5.906484339111	1000
4	1469	5.915983648246	1000
4	1472	5.91983973188	1000
4	1475	5.930604368049	1000
4	1478	5.957852889338	1000
4	1481	5.964118224991	1000
4	1484	5.973755866254	1000
4	1487	5.977559594813	1000
4	1490	5.984853011982	1000
4	1493	5.991017239341	1000
4	1496	5.994444066387	1000
4	1499	6.002903458244	1000
4	1502	6.007362847302	1000
4	1505	6.012965219425	1000
4	1508	6.021897758562	1000
4	1511	6.038561885848	1000
4	1514	6.043430601974	1000
4	1517	6.074379959543	1000
4	1520	6.098173710506	1000
4	1523	6.098772697735	1000
4	1526	6.102283304949	1000
4	1529	6.109373327594	1000
4	1532	6.110699518113	1000
4	1535	6.115840810458	1000
4	1538	6.132010196342	1000
4	1541	6.145702716353	1000
4	1544	6.157389259451	1000
4	1547	6.172265636418	1000
4	1550	6.175017442478	1000
4	1553	6.180034542385	1000
4	1556	6.193567667588	1000
4	1559	6.218934549364	1000
4	1562	6.228349229727	1000
4	1565	6.23233635721	1000
4	1568	6.232704778486	1000
4	1571	6.247573216575	1000
4	1574	6.247668200733	1000
4	1577	6.25326376505	1000
4	1580	6.262337760023	1000
4	1583	6.292967477946	1000
4	1586	6.294092542597	1000
4	1589	6.300341888975	1000
4	1592	6.300637252704	1000
4	1595	6.305671004586	1000
4	1598	6.31735267511	1000
4	1601	6.321279199686	1000
4	1604	6.324104070084	1000
4	1607	6.325579620887	1000
4	1610	6.335908197377	1000
4	1613	6.3501681473	1000
4	1616	6.363543479336	1000
4	1619	6.39922197941	1000
4	1622	6.399254461905	1000
4	1625	6.411756595483	1000
4	1628	6.422763857046	1000
4	1631	6.433426201594	1000
4	1634	6.472913987557	1000
4	1637	6.473118175042	1000
4	1640	6.487425964333	1000
4	1643	6.507589353134	1000
4	1646	6.516144830884	1000
4	1649	6.521021785285	1000
4	1652	6.539797663893	1000
4	1655	6.541025285265	1000
4	1658	6.548026807333	1000
4	1661	6.556833246937	1000
4	1664	6.571041579773	1000
4	1667	6.572184993567	1000
4	1670	6.575286504552	1000
4	1673	6.581624232441	1000
4	1676	6.593339736717	1000
4	1679	6.619499982083	1000
4	1682	6.631073979224	1000
4	1685	6.632792963669	1000
4	1688	6.680090467885	1000
4	1691	6.704739097691	1000
4	1694	6.713122340494	1000
4	1697	6.743788553094	1000
4	1700	6.75314297344	1000
4	1703	6.783958164984	1000
4	1706	6.805214404816	1000
4	1709	6.846626526368	1000
4	1712	6.876902735904	1000
4	1715	6.877343124747	1000
4	1718	6.879648271661	1000
4	1721	6.885562816881	1000
4	1724	6.922037195963	1000
4	1727	6.926317790995	1000
4	1730	6.928416714116	1000
4	1733	6.954507509002	1000
4	1736	6.961603142429	1000
4	1739	6.990218526548	1000
4	1742	6.992314060106	1000
4	1745	7.00529928272	1000
4	1748	7.012262757776	1000
4	1751	7.013217599637	1000
4	1754	7.027524626542	1000
4	1757	7.030935263464	1000
4	1760	7.031420322396	1000
4	1763	7.03216211618	1000
4	1766	7.032918397511	1000
4	1769	7.061515216789	1000
4	1772	7.077674744251	1000
4	1775	7.105075472664	1000
4	1778	7.118473695547	1000
4	1781	7.127506931371	1000
4	1784	7.131863497224	1000
4	1787	7.206214418649	1000
4	1790	7.211610979064	1000
4	1793	7.219244220516	1000
4	1796	7.224946733781	1000
4	1799	7.271610470454	1000
4	1802	7.273913965277	1000
4	1805	7.278683714236	1000
4	1808	7.292370007936	1000
4	1811	7.293153531084	1000
4	1814	7.30436849608	1000
4	1817	7.312161424802	1000
4	1820	7.316170325799	1000
4	1823	7.319438540515	1000
4	1826	7.328109767365	1000
4	1829	7.333614782997	1000
4	1832	7.340931929071	1000
4	1835	7.345872336005	1000
4	1838	7.3881501521	1000
4	1841	7.389868831358	1000
4	1844	7.391090619062	1000
4	1847	7.396138631131	1000
4	1850	7.406867901789	1000
4	1853	7.419784587302	1000
4	1856	7.425859754907	1000
4	1859	7.512661376341	1000
4	1862	7.517865769986	1000
4	1865	7.533201795536	1000
4	1868	7.545381303036	1000
4	1871	7.565504519832	1000
4	1874	7.610374301568	1000
4	1877	7.636839111214	1000
4	1880	7.65419480208	1000
4	1883	7.668572618734	1000
4	1886	7.673477230585	1000
4	1889	7.67539482795	1000
4	1892	7.676171031212	1000
4	1895	7.679494337916	1000
4	1898	7.686287892536	1000
4	1901	7.695145533447	1000
4	1904	7.712943614343	1000
4	1907	7.75119822441	1000
4	1910	7.752695741517	1000
4	1913	7.754053821506	1000
4	1916	7.764744067129	1000
4	1919	7.781160715386	1000
4	1922	7.803779090756	1000
4	1925	7.836734113199	1000
4	1928	7.885933324711	1000
4	1931	7.892059266663	1000
4	1934	7.897802185516	1000
4	1937	7.899721516076	1000
4	1940	7.913581210479	1000
4	1943	7.926413183179	1000
4	1946	7.950184646732	1000
4	1949	7.951412468487	1000
4	1952	7.959676998614	1000
4	1955	7.970117957538	1000
4	1958	7.973435809747	1000
4	1961	7.975657682389	1000
4	1964	7.999215161864	1000
4	1967	7.999938978149	1000
4	1970	8.007571583802	1000
4	1973	8.009048909261	1000
4	1976	8.016377959359	1000
4	1979	8.063299648595	1000
4	1982	8.069913303975	1000
4	1985	8.093262718982	1000
4	1988	8.09476016925	1000
4	1991	8.098557297944	1000
4	1994	8.104763301069	1000
4	1997	8.11088945198	1000
4	2000	8.124243817719	1000
4	2003	8.129316095176	1000
4	2006	8.144327479104	1000
4	2009	8.156560221361	1000
4	2012	8.162673363484	1000
4	2015	8.169455903102	1000
4	2018	8.180895334277	1000
4	2021	8.181766726974	1000
4	2024	8.20250583945	1000
4	2027	8.215221578769	1000
4	2030	8.230772112567	1000
4	2033	8.240010455797	1000
4	2036	8.241415296269	1000
4	2039	8.247646340968	1000
4	2042	8.253884204307	1000
4	2045	8.258530573914	1000
4	2048	8.258895469839	1000
4	2051	8.274934290847	1000
4	2054	8.276329790848	1000
4	2057	8.287516031735	1000
4	2060	8.302093100238	1000
4	2063	8.314180372499	1000
4	2066	8.352552277588	1000
4	2069	8.353860659951	1000
4	2072	8.37808462507	1000
4	2075	8.378440122098	1000
4	2078	8.387626591085	1000
4	2081	8.393841672426	1000
4	2084	8.402754357422	1000
4	2087	8.408205808347	1000
4	2090	8.410742862447	1000
4	2093	8.410974559709	1000
4	2096	8.419736023952	1000
4	2099	8.44193709459	1000
4	2102	8.447542933308	1000
4	2105	8.450568609425	1000
4	2108	8.451576129905	1000
4	2111	8.452646182892	1000
4	2114	8.455649222257	1000
4	2117	8.456913735945	1000
4	2120	8.460609001492	1000
4	2123	8.461430267997	1000
4	2126	8.462244538534	1000
4	2129	8.485522879649	1000
4	2132	8.487645448122	1000
4	2135	8.497488556033	1000
4	2138	8.515306324922	1000
4	2141	8.522621035092	1000
4	2144	8.524618917419	1000
4	2147	8.527290583643	1000
4	2150	8.534099001079	1000
4	2153	8.543114269563	1000
4	2156	8.548273335996	1000
4	2159	8.566523846888	1000
4	2162	8.583208518815	1000
4	2165	8.614650937738	1000
4	2168	8.615003497105	1000
4	2171	8.642128302474	1000
4	2174	8.648110498457	1000
4	2177	8.673392003968	1000
4	2180	8.687476616702	1000
4	2183	8.739916613719	1000
4	2186	8.757006185907	1000
4	2189	8.762447146927	1000
4	2192	8.770790456299	1000
4	2195	8.776457201283	1000
4	2198	8.781905098644	1000
4	2201	8.785533036301	1000
4	2204	8.793754477236	1000
4	2207	8.80749311463	1000
4	2210	8.811390916286	1000
4	2213	8.820308544138	1000
4	2216	8.821806874432	1000
4	2219	8.823896905085	1000
4	2222	8.82447215148	1000
4	2225	8.866847048286	1000
4	2228	8.866893462164	1000
4	2231	8.869254110428	1000
4	2234	8.880641946589	1000
4	2237	8.881660403521	1000
4	2240	8.907294730637	1000
4	2243	8.922554050665	1000
4	2246	8.963269219241	1000
4	2249	8.971771652146	1000
4	2252	8.976058673689	1000
4	2255	8.985627455399	1000
4	2258	9.017679755081	1000
4	2261	9.02650643614	1000
4	2264	9.030237140897	1000
4	2267	9.05542296204	1000
4	2270	9.061003990965	1000
4	2273	9.061020602716	1000
4	2276	9.064435804924	1000
4	2279	9.069032621729	1000
4	2282	9.092521642436	1000
4	2285	9.099882659229	1000
4	2288	9.106939184969	1000
4	2291	9.11185471089	1000
4	2294	9.137365877729	1000
4	2297	9.172176786223	1000
4	2300	9.22995316222	1000
4	2303	9.235626684757	1000
4	2306	9.276255575592	1000
4	2309	9.295091235847	1000
4	2312	9.308603869419	1000
4	2315	9.311974563285	1000
4	2318	9.314901719323	1000
4	2321	9.317080669935	1000
4	2324	9.347810196912	1000
4	2327	9.351989180522	1000
4	2330	9.359230926031	1000
4	2333	9.367404549368	1000
4	2336	9.385474763085	1000
4	2339	9.407787641954	1000
4	2342	9.409584584453	1000
4	2345	9.416265016422	1000
4	2348	9.438472044181	1000
4	2351	9.458919223434	1000
4	2354	9.460215776236	1000
4	2357	9.462256461302	1000
4	2360	9.466608754936	1000
4	2363	9.467548952549	1000
4	2366	9.474182544551	1000
4	2369	9.475548872439	1000
4	2372	9.485626874456	1000
4	2375	9.489024096404	1000
4	2378	9.499913051443	1000
4	2381	9.501413358029	1000
4	2384	9.546111850518	1000
4	2387	9.578470268765	1000
4	2390	9.584437226403	1000
4	2393	9.58776491675	1000
4	2396	9.591223474765	1000
4	2399	9.599149161496	1000
4	2402	9.5996389355	1000
4	2405	9.611888924529	1000
4	2408	9.618186049858	1000
4	2411	9.623872388806	1000
4	2414	9.643761123054	1000
4	2417	9.658575769491	1000
4	2420	9.695612535158	1000
4	2423	9.700817729432	1000
4	2426	9.728157446346	1000
4	2429	9.745791846136	1000
4	2432	9.751099100404	1000
4	2435	9.762762817121	1000
4	2438	9.766848555419	1000
4	2441	9.791744384008	1000
4	2444	9.793175562448	1000
4	2447	9.796041265161	1000
4	2450	9.798467148396	1000
4	2453	9.804657729066	1000
4	2456	9.821066597694	1000
4	2459	9.830048168513	1000
4	2462	9.838073752723	1000
4	2465	9.838080306163	1000
4	2468	9.844729315901	1000
4	2471	9.845517274123	1000
4	2474	9.848319438595	1000
4	2477	9.880648130815	1000
4	2480	9.883559078322	1000
4	2483	9.907010783582	1000
4	2486	9.926498908908	1000
4	2489	9.928578959163	1000
4	2492	9.939747041842	1000
4	2495	9.9412220313	1000
4	2498	9.956840536601	1000
4	2501	9.969016057652	1000
4	2504	9.989067896554	1000
4	2507	9.996900820001	1000
4	2510	10.026462755551	1000
4	2513	10.027070054063	1000
4	2516	10.031228858173	1000
4	2519	10.046294266231	1000
4	2522	10.052791936155	1000
4	2525	10.055070637245	1000
4	2528	10.056431493911	1000
4	2531	10.076832981062	1000
4	2534	10.08452289392	1000
4	2537	10.110196624196	1000
4	2540	10.12605570547	1000
4	2543	10.132381730946	1000
4	2546	10.137993219873	1000
4	2549	10.146692301109	1000
4	2552	10.173077484585	1000
4	2555	10.18911741705	1000
4	2558	10.189179412483	1000
4	2561	10.203395646291	1000
4	2564	10.233630728198	1000
4	2567	10.248504094103	1000
4	2570	10.250841767261	1000
4	2573	10.258770348382	1000
4	2576	10.260584633499	1000
4	2579	10.265921254958	1000
4	2582	10.299119016975	1000
4	2585	10.329934089612	1000
4	2588	10.333923512671	1000
4	2591	10.338902991664	1000
4	2594	10.349904868112	1000
4	2597	10.389531075541	1000
4	2600	10.391450302787	1000
4	2603	10.395013667492	1000
4	2606	10.419829215274	1000
4	2609	10.427953955822	1000
4	2612	10.455460951332	1000
4	2615	10.457923385152	1000
4	2618	10.467051984374	1000
4	2621	10.471791087879	1000
4	2624	10.476358178671	1000
4	2627	10.483464276319	1000
4	2630	10.490274667325	1000
4	2633	10.495580469388	1000
4	2636	10.525157591025	1000
4	2639	10.540947361806	1000
4	2642	10.55655083151	1000
4	2645	10.560659252464	1000
4	2648	10.571003991992	1000
4	2651	10.589128849816	1000
4	2654	10.608180401267	1000
4	2657	10.61324924266	1000
4	2660	10.63093097598	1000
4	2663	10.646907828185	1000
4	2666	10.648738741963	1000
4	2669	10.672852845363	1000
4	2672	10.679839018001	1000
4	2675	10.687834988513	1000
4	2678	10.694973503584	1000
4	2681	10.705041182979	1000
4	2684	10.716689171953	1000
4	2687	10.724963327016	1000
4	2690	10.749153136588	1000
4	2693	10.761010920426	1000
4	2696	10.767169421001	1000
4	2699	10.773637895103	1000
4	2702	10.793619751832	1000
4	2705	10.798755813638	1000
4	2708	10.801606600153	1000
4	2711	10.802341233338	1000
4	2714	10.827393516496	1000
4	2717	10.857486184519	1000
4	2720	10.859021823857	1000
4	2723	10.863907950023	1000
4	2726	10.866221825889	1000
4	2729	10.867700026356	1000
4	2732	10.895315066748	1000
4	2735	10.896017772928	1000
4	2738	10.943257046486	1000
4	2741	10.944474143887	1000
4	2744	10.968368731573	1000
4	2747	10.978399262383	1000
4	2750	10.983904086479	1000
4	2753	10.988932936122	1000
4	2756	11.005927257888	1000
4	2759	11.010459822354	1000
4	2762	11.02331128291	1000
4	2765	11.032052250615	1000
4	2768	11.040014510834	1000
4	2771	11.067785809617	1000
4	2774	11.07749241388	1000
4	2777	11.098536382088	1000
4	2780	11.114053245343	1000
4	2783	11.114525088342	1000
4	2786	11.132324570722	1000
4	2789	11.135258053433	1000
4	2792	11.163273112098	1000
4	2795	11.163799584233	1000
4	2798	11.168660462983	1000
4	2801	11.169921228978	1000
4	2804	11.17766698623	1000
4	2807	11.198246063479	1000
4	2810	11.20249512908	1000
4	2813	11.204458562042	1000
4	2816	11.209269076606	1000
4	2819	11.229445449349	1000
4	2822	11.23126068269	1000
4	2825	11.234356025441	1000
4	2828	11.235212069518	1000
4	2831	11.249890346405	1000
4	2834	11.255925295405	1000
4	2837	11.260392676803	1000
4	2840	11.275609539889	1000
4	2843	11.280522811641	1000
4	2846	11.296136163295	1000
4	2849	11.316397897231	1000
4	2852	11.319343531017	1000
4	2855	11.363056047273	1000
4	2858	11.365182020204	1000
4	2861	11.369306124824	1000
4	2864	11.371684540671	1000
4	2867	11.376771248755	1000
4	2870	11.384619771505	1000
4	2873	11.393481921949	1000
4	2876	11.416539369181	1000
4	2879	11.442966590526	1000
4	2882	11.445949724817	1000
4	2885	11.457652473326	1000
4	2888	11.459071067666	1000
4	2891	11.466442431009	1000
4	2894	11.47111163171	1000
4	2897	11.475677988231	1000
4	2900	11.483584890793	1000
4	2903	11.49928923271	1000
4	2906	11.500149539327	1000
4	2909	11.525510318738	1000
4	2912	11.541438194408	1000
4	2915	11.543768486153	1000
4	2918	11.577362759375	1000
4	2921	11.585832983316	1000
4	2924	11.688565202428	1000
4	2927	11.691201887374	1000
4	2930	11.70038813306	1000
4	2933	11.70450220977	1000
4	2936	11.708854069926	1000
4	2939	11.719584469809	1000
4	2942	11.75015388482	1000
4	2945	11.769787201707	1000
4	2948	11.785232906977	1000
4	2951	11.795062161498	1000
4	2954	11.825720730975	1000
4	2957	11.833856557236	1000
4	2960	11.858698265294	1000
4	2963	11.88024614856	1000
4	2966	11.883133216893	1000
4	2969	11.900833436668	1000
4	2972	11.900980386734	1000
4	2975	11.905658373692	1000
4	2978	11.908788011567	1000
4	2981	11.917271629536	1000
4	2984	11.933292146548	1000
4	2987	11.934525530932	1000
4	2990	11.943206882933	1000
4	2993	11.976654346525	1000
4	2996	11.979769649481	1000
4	2999	11.993336129843	1000
4	3002	12.004119905299	1000
4	3005	12.004241281406	1000
4	3008	12.011992464849	1000
4	3011	12.02679618418	1000
4	3014	12.027335844195	1000
4	3017	12.052731250371	1000
4	3020	12.061540916167	1000
4	3023	12.061914607368	1000
4	3026	12.064964238322	1000
4	3029	12.101829302005	1000
4	3032	12.112305770626	1000
4	3035	12.113670146967	1000
4	3038	12.117738600899	1000
4	3041	12.125059804525	1000
4	3044	12.125313876107	1000
4	3047	12.131678372085	1000
4	3050	12.139745775425	1000
4	3053	12.143097230249	1000
4	3056	12.153756639475	1000
4	3059	12.170548714224	1000
4	3062	12.173776360564	1000
4	3065	12.185403165399	1000
4	3068	12.197650395215	1000
4	3071	12.23325387114	1000
4	3074	12.251329743087	1000
4	3077	12.27396352901	1000
4	3080	12.282053547764	1000
4	3083	12.284513487453	1000
4	3086	12.35022931367	1000
4	3089	12.351891575775	1000
4	3092	12.359543156406	1000
4	3095	12.360389424781	1000
4	3098	12.394946350157	1000
4	3101	12.435149531425	1000
4	3104	12.450398964858	1000
4	3107	12.455568227815	1000
4	3110	12.459090736655	1000
4	3113	12.46279030727	1000
4	3116	12.46442418615	1000
4	3119	12.473377926114	1000
4	3122	12.475213184955	1000
4	3125	12.479783578807	1000
4	3128	12.491608261742	1000
4	3131	12.507211582495	1000
4	3134	12.507506448244	1000
4	3137	12.514254317344	1000
4	3140	12.526925248136	1000
4	3143	12.549953217232	1000
4	3146	12.557692927284	1000
4	3149	12.599458104328	1000
4	3152	12.603163053543	1000
4	3155	12.603326262855	1000
4	3158	12.611260299064	1000
4	3161	12.61481070555	1000
4	3164	12.635638726944	1000
4	3167	12.638818392573	1000
4	3170	12.643282104674	1000
4	3173	12.662080222336	1000
4	3176	12.677149448678	1000
4	3179	12.686948184651	1000
4	3182	12.701595431113	1000
4	3185	12.708103987438	1000
4	3188	12.708167877819	1000
4	3191	12.708304918858	1000
4	3194	12.716895076226	1000
4	3197	12.717938658358	1000
4	3200	12.718567770584	1000
4	3203	12.75897511033	1000
4	3206	12.782483279776	1000
4	3209	12.784462160847	1000
4	3212	12.784470134082	1000
4	3215	12.818569345552	1000
4	3218	12.822483515122	1000
4	3221	12.824951544562	1000
4	3224	12.839064261289	1000
4	3227	12.840447895175	1000
4	3230	12.844136792977	1000
4	3233	12.888448877632	1000
4	3236	12.900690798368	1000
4	3239	12.909515385277	1000
4	3242	12.91560373715	1000
4	3245	12.933477009591	1000
4	3248	12.935300251894	1000
4	3251	12.976358692848	1000
4	3254	13.000048693132	1000
4	3257	13.011585938403	1000
4	3260	13.012112184863	1000
4	3263	13.026594133118	1000
4	3266	13.055935583218	1000
4	3269	13.064858189066	1000
4	3272	13.070105835338	1000
4	3275	13.071643618369	1000
4	3278	13.088516740574	1000
4	3281	13.114472898963	1000
4	3284	13.11574058227	1000
4	3287	13.132815313408	1000
4	3290	13.133021805726	1000
4	3293	13.173976764878	1000
4	3296	13.185432716897	1000
4	3299	13.19508002771	1000
4	3302	13.19929089577	1000
4	3305	13.231081198856	1000
4	3308	13.234790611138	1000
4	3311	13.255923973662	1000
4	3314	13.306407693105	1000
4	3317	13.324763942321	1000
4	3320	13.333546346795	1000
4	3323	13.334366647054	1000
4	3326	13.342039962975	1000
4	3329	13.348960470436	1000
4	3332	13.351680207057	1000
4	3335	13.358291390752	1000
4	3338	13.363604869817	1000
4	3341	13.365749858458	1000
4	3344	13.372737162432	1000
4	3347	13.376395914364	1000
4	3350	13.385255215911	1000
4	3353	13.385684732612	1000
4	3356	13.41408783829	1000
4	3359	13.434425455385	1000
4	3362	13.444076581359	1000
4	3365	13.466987587238	1000
4	3368	13.506355029387	1000
4	3371	13.507760479456	1000
4	3374	13.519718514741	1000
4	3377	13.594257887258	1000
4	3380	13.647221748508	1000
4	3383	13.658317343545	1000
4	3386	13.659961221044	1000
4	3389	13.670462800071	1000
4	3392	13.670487601261	1000
4	3395	13.673149005053	1000
4	3398	13.710665428782	1000
4	3401	13.715479052977	1000
4	3404	13.72768532449	1000
4	3407	13.731641706729	1000
4	3410	13.767078812468	1000
4	3413	13.782726926384	1000
4	3416	13.787526410869	1000
4	3419	13.806355261036	1000
4	3422	13.807728957789	1000
4	3425	13.813706219009	1000
4	3428	13.816706510436	1000
4	3431	13.830520283606	1000
4	3434	13.831817271293	1000
4	3437	13.837887842462	1000
4	3440	13.84177418295	1000
4	3443	13.850245153036	1000
4	3446	13.855412659109	1000
4	3449	13.870119535132	1000
4	3452	13.870418144112	1000
4	3455	13.882479178786	1000
4	3458	13.885624462408	1000
4	3461	13.889379788652	1000
4	3464	13.908708389277	1000
4	3467	13.946074039219	1000
4	3470	13.950641264155	1000
4	3473	13.971681328604	1000
4	3476	13.972998984368	1000
4	3479	13.985059846404	1000
4	3482	14.001745031478	1000
4	3485	14.003779951159	1000
4	3488	14.010441511701	1000
4	3491	14.037227833012	1000
4	3494	14.038539967174	1000
4	3497	14.038759112368	1000
4	3500	14.049475435043	1000
4	3503	14.056337884223	1000
4	3506	14.075572750673	1000
4	3509	14.106411353345	1000
4	3512	14.110676952546	1000
4	3515	14.116577155088	1000
4	3518	14.124569893111	1000
4	3521	14.13521508842	1000
4	3524	14.184727954925	1000
4	3527	14.199069310862	1000
4	3530	14.204991988126	1000
4	3533	14.208666502933	1000
4	3536	14.243390182592	1000
4	3539	14.24513810257	1000
4	3542	14.260425089981	1000
4	3545	14.291571667253	1000
4	3548	14.304683191205	1000
4	3551	14.311283279574	1000
4	3554	14.313945875791	1000
4	3557	14.319442308323	1000
4	3560	14.334168051414	1000
4	3563	14.346749958024	1000
4	3566	14.378319056018	1000
4	3569	14.402515387045	1000
4	3572	14.422839056992	1000
4	3575	14.451929430041	1000
4	3578	14.455810586146	1000
4	3581	14.461345939701	1000
4	3584	14.467080315974	1000
4	3587	14.476944377662	1000
4	3590	14.49018371172	1000
4	3593	14.494238230643	1000
4	3596	14.494474082929	1000
4	3599	14.500588448177	1000
4	3602	14.505015638834	1000
4	3605	14.539221665352	1000
4	3608	14.565521173141	1000
4	3611	14.589141186423	1000
4	3614	14.601842344124	1000
4	3617	14.60690676877	1000
4	3620	14.616458213998	1000
4	3623	14.636721613479	1000
4	3626	14.637967425516	1000
4	3629	14.65734534705	1000
4	3632	14.657849967495	1000
4	3635	14.678191291745	1000
4	3638	14.697967179378	1000
4	3641	14.698595429623	1000
4	3644	14.710434723338	1000
4	3647	14.718811508319	1000
4	3650	14.721044853893	1000
4	3653	14.722972217188	1000
4	3656	14.740779586792	1000
4	3659	14.750843011241	1000
4	3662	14.799736906218	1000
4	3665	14.848111843305	1000
4	3668	14.907096277258	1000
4	3671	14.908611413224	1000
4	3674	14.94202854065	1000
4	3677	14.9453941523	1000
4	3680	14.952748724007	1000
4	3683	14.969745143932	1000
4	3686	14.972477303758	1000
4	3689	14.982502451728	1000
4	3692	14.984969289434	1000
4	3695	14.986296930506	1000
4	3698	14.98778409451	1000
4	3701	14.993095353	1000
4	3704	14.993151341413	1000
4	3707	14.999788916066	1000
4	3710	15.012883687065	1000
4	3713	15.019047405896	1000
4	3716	15.020123806017	1000
4	3719	15.020900685953	1000
4	3722	15.024811384338	1000
4	3725	15.027037406342	1000
4	3728	15.067298899897	1000
4	3731	15.069266507558	1000
4	3734	15.088912067876	1000
4	3737	15.099497868768	1000
4	3740	15.109605626184	1000
4	3743	15.118216889662	1000
4	3746	15.161022387223	1000
4	3749	15.166450139511	1000
4	3752	15.185059399652	1000
4	3755	15.194783505266	1000
4	3758	15.20082640226	1000
4	3761	15.238164411952	1000
4	3764	15.249109485991	1000
4	3767	15.250628726558	1000
4	3770	15.257114647262	1000
4	3773	15.275370767643	1000
4	3776	15.289570893304	1000
4	3779	15.319342872616	1000
4	3782	15.322946041568	1000
4	3785	15.339981461578	1000
4	3788	15.34737292232	1000
4	3791	15.357601725384	1000
4	3794	15.394827292274	1000
4	3797	15.441350819516	1000
4	3800	15.465081322784	1000
4	3803	15.470419850364	1000
4	3806	15.496658916697	1000
4	3809	15.50887246014	1000
4	3812	15.515617819283	1000
4	3815	15.516054584362	1000
4	3818	15.533697382701	1000
4	3821	15.542065789585	1000
4	3824	15.560577715622	1000
4	3827	15.577118715565	1000
4	3830	15.596052089535	1000
4	3833	15.600343356837	1000
4	3836	15.61970462371	1000
4	3839	15.629255990938	1000
4	3842	15.636950077689	1000
4	3845	15.650441888836	1000
4	3848	15.650700969805	1000
4	3851	15.651996226703	1000
4	3854	15.656142967544	1000
4	3857	15.705030492973	1000
4	3860	15.706836820824	1000
4	3863	15.71165323638	1000
4	3866	15.712282065166	1000
4	3869	15.717110543701	1000
4	3872	15.721744252806	1000
4	3875	15.75695023318	1000
4	3878	15.779334130235	1000
4	3881	15.78512418045	1000
4	3884	15.785425152085	1000
4	3887	15.80676164054	1000
4	3890	15.819726295077	1000
4	3893	15.821709949628	1000
4	3896	15.888183221814	1000
4	3899	15.88945066089	1000
4	3902	15.913669873311	1000
4	3905	15.91785207865	1000
4	3908	15.924710742892	1000
4	3911	15.943754439619	1000
4	3914	15.957334576432	1000
4	3917	15.990675805931	1000
4	3920	16.002322878729	1000
4	3923	16.003558042501	1000
4	3926	16.029445360126	1000
4	3929	16.047037493247	1000
4	3932	16.061969634181	1000
4	3935	16.062632407196	1000
4	3938	16.068687006333	1000
4	3941	16.07088594591	1000
4	3944	16.091591130206	1000
4	3947	16.106059967665	1000
4	3950	16.13181490508	1000
4	3953	16.172596357476	1000
4	3956	16.190482763007	1000
4	3959	16.252350181144	1000
4	3962	16.263797154224	1000
4	3965	16.264251191766	1000
4	3968	16.264423440222	1000
4	3971	16.269447938904	1000
4	3974	16.290259229129	1000
4	3977	16.314390284394	1000
4	3980	16.353263061829	1000
4	3983	16.354071125867	1000
4	3986	16.354618265178	1000
4	3989	16.383959611531	1000
4	3992	16.388326539081	1000
4	3995	16.398123541814	1000
4	3998	16.446632459054	1000
4	4001	16.45277134054	1000
4	4004	16.465926092407	1000
4	4007	16.472073604172	1000
4	4010	16.489615891971	1000
4	4013	16.49861795702	1000
4	4016	16.501872154335	1000
4	4019	16.505670172641	1000
4	4022	16.509252002787	1000
4	4025	16.518371663002	1000
4	4028	16.532947580289	1000
4	4031	16.568724777234	1000
4	4034	16.582938246426	1000
4	4037	16.601173020378	1000
4	4040	16.603393459275	1000
4	4043	16.609015518709	1000
4	4046	16.615424244861	1000
4	4049	16.629339132315	1000
4	4052	16.633549014196	1000
4	4055	16.637885679588	1000
4	4058	16.643164292854	1000
4	4061	16.663112161499	1000
4	4064	16.673453510567	1000
4	4067	16.674392646742	1000
4	4070	16.675370370818	1000
4	4073	16.680939334713	1000
4	4076	16.698398893503	1000
4	4079	16.7124022329	1000
4	4082	16.727173525468	1000
4	4085	16.744664951047	1000
4	4088	16.748726807778	1000
4	4091	16.758262490918	1000
4	4094	16.767668616862	1000
4	4097	16.783816551112	1000
4	4100	16.821539146115	1000
4	4103	16.825447740603	1000
4	4106	16.844364518231	1000
4	4109	16.85730919478	1000
4	4112	16.86772599984	1000
4	4115	16.885619448434	1000
4	4118	16.92021524947	1000
4	4121	16.920663827221	1000
4	4124	16.922577405931	1000
4	4127	16.939518584753	1000
4	4130	16.940568718752	1000
4	4133	16.949279830627	1000
4	4136	16.952259225227	1000
4	4139	16.956106577115	1000
4	4142	16.970628096845	1000
4	4145	16.970995992394	1000
4	4148	16.995789030739	1000
4	4151	17.002843216096	1000
4	4154	17.011218559191	1000
4	4157	17.020538155846	1000
4	4160	17.03298421844	1000
4	4163	17.03805903183	1000
4	4166	17.039338133672	1000
4	4169	17.043937510536	1000
4	4172	17.046146634632	1000
4	4175	17.055893403209	1000
4	4178	17.060486614525	1000
4	4181	17.098546851209	1000
4	4184	17.139030168881	1000
4	4187	17.150645152983	1000
4	4190	17.162177386742	1000
4	4193	17.21288058956	1000
4	4196	17.23907510613	1000
4	4199	17.256456715881	1000
4	4202	17.260972088522	1000
4	4205	17.26643184254	1000
4	4208	17.269128581724	1000
4	4211	17.277141800336	1000
4	4214	17.332854418156	1000
4	4217	17.362040041455	1000
4	4220	17.363551555278	1000
4	4223	17.363857711263	1000
4	4226	17.391326356399	1000
4	4229	17.400571105333	1000
4	4232	17.403251676534	1000
4	4235	17.416689215025	1000
4	4238	17.429090634762	1000
4	4241	17.43065310899	1000
4	4244	17.434259889135	1000
4	4247	17.435003389263	1000
4	4250	17.437829938022	1000
4	4253	17.439532927546	1000
4	4256	17.442109621075	1000
4	4259	17.455989621972	1000
4	4262	17.456598824181	1000
4	4265	17.457887904094	1000
4	4268	17.45961675483	1000
4	4271	17.464183820387	1000
4	4274	17.468442515469	1000
4	4277	17.471975995586	1000
4	4280	17.488637314838	1000
4	4283	17.563350133231	1000
4	4286	17.572512400434	1000
4	4289	17.607144761549	1000
4	4292	17.61320706216	1000
4	4295	17.614560820057	1000
4	4298	17.620867499689	1000
4	4301	17.625081400832	1000
4	4304	17.633241968211	1000
4	4307	17.646083794367	1000
4	4310	17.653501388838	1000
4	4313	17.686331474987	1000
4	4316	17.712260837512	1000
4	4319	17.726787876681	1000
4	4322	17.734860599761	1000
4	4325	17.736555039978	1000
4	4328	17.742625368977	1000
4	4331	17.75725040853	1000
4	4334	17.761274160245	1000
4	4337	17.762591778924	1000
4	4340	17.791210142643	1000
4	4343	17.806025422157	1000
4	4346	17.817488184545	1000
4	4349	17.836359608396	1000
4	4352	17.858028402568	1000
4	4355	17.865955609888	1000
4	4358	17.891518190075	1000
4	4361	17.921301460588	1000
4	4364	17.925103514188	1000
4	4367	17.936327525972	1000
4	4370	17.945300896113	1000
4	4373	17.954565772641	1000
4	4376	17.987868192266	1000
4	4379	17.992237572093	1000
4	4382	18.041442392317	1000
4	4385	18.06933192454	1000
4	4388	18.076697811325	1000
4	4391	18.097106799878	1000
4	4394	18.114693292457	1000
4	4397	18.128287823576	1000
4	4400	18.132912842212	1000
4	4403	18.13553744739	1000
4	4406	18.148897080514	1000
4	4409	18.171113153502	1000
4	4412	18.171309789313	1000
4	4415	18.18366341593	1000
4	4418	18.19068296128	1000
4	4421	18.218086679713	1000
4	4424	18.222740650578	1000
4	4427	18.230454316395	1000
4	4430	18.239131832159	1000
4	4433	18.24094784121	1000
4	4436	18.255922615813	1000
4	4439	18.277219769863	1000
4	4442	18.277935614289	1000
4	4445	18.282068993961	1000
4	4448	18.282534441217	1000
4	4451	18.320166545595	1000
4	4454	18.33336798432	1000
4	4457	18.373325814378	1000
4	4460	18.382424298023	1000
4	4463	18.401862310511	1000
4	4466	18.407491107905	1000
4	4469	18.412731216	1000
4	4472	18.418434166234	1000
4	4475	18.431304664196	1000
4	4478	18.436649860457	1000
4	4481	18.464325056415	1000
4	4484	18.513415170277	1000
4	4487	18.513785958382	1000
4	4490	18.516368409561	1000
4	4493	18.517797190658	1000
4	4496	18.518316641632	1000
4	4499	18.521417864993	1000
4	4502	18.528522148219	1000
4	4505	18.550289500166	1000
4	4508	18.553299131354	1000
4	4511	18.561472456378	1000
4	4514	18.593318396103	1000
4	4517	18.606521489256	1000
4	4520	18.625720035265	1000
4	4523	18.635328662657	1000
4	4526	18.682556131646	1000
4	4529	18.693216216302	1000
4	4532	18.693775162611	1000
4	4535	18.696422665313	1000
4	4538	18.702648427207	1000
4	4541	18.713682292564	1000
4	4544	18.731419570453	1000
4	4547	18.737814096805	1000
4	4550	18.752671002025	1000
4	4553	18.771391320661	1000
4	4556	18.775971018037	1000
4	4559	18.822485234266	1000
4	4562	18.835071328216	1000
4	4565	18.860614714169	1000
4	4568	18.870356198875	1000
4	4571	18.886595301344	1000
4	4574	18.904259832693	1000
4	4577	18.932923874236	1000
4	4580	18.934879040108	1000
4	4583	18.944684081957	1000
4	4586	18.951395420851	1000
4	4589	18.982187627758	1000
4	4592	18.983520076223	1000
4	4595	19.032117500257	1000
4	4598	19.057114203958	1000
4	4601	19.058034525442	1000
4	4604	19.066137420023	1000
4	4607	19.081308868519	1000
4	4610	19.097388740841	1000
4	4613	19.125825512372	1000
4	4616	19.145130696143	1000
4	4619	19.149599651835	1000
4	4622	19.15787991154	1000
4	4625	19.172399229251	1000
4	4628	19.174187312268	1000
4	4631	19.17677523371	1000
4	4634	19.184646431972	1000
4	4637	19.188896496876	1000
4	4640	19.212711245331	1000
4	4643	19.223301958165	1000
4	4646	19.228446735864	1000
4	4649	19.251119179424	1000
4	4652	19.270728770099	1000
4	4655	19.347648072805	1000
4	4658	19.370200037793	1000
4	4661	19.376622616128	1000
4	4664	19.378259312316	1000
4	4667	19.400298454449	1000
4	4670	19.401037869258	1000
4	4673	19.406212272238	1000
4	4676	19.436481778133	1000
4	4679	19.475340462989	1000
4	4682	19.487619112422	1000
4	4685	19.501621098756	1000
4	4688	19.502141683139	1000
4	4691	19.510812109067	1000
4	4694	19.520310975556	1000
4	4697	19.525298992814	1000
4	4700	19.526151749412	1000
4	4703	19.529271114213	1000
4	4706	19.534588817695	1000
4	4709	19.54144298832	1000
4	4712	19.552169320184	1000
4	4715	19.56754784222	1000
4	4718	19.572134074196	1000
4	4721	19.576921081054	1000
4	4724	19.577159738342	1000
4	4727	19.577660542963	1000
4	4730	19.5812385321	1000
4	4733	19.597414728608	1000
4	4736	19.609291193462	1000
4	4739	19.626916302415	1000
4	4742	19.644496168873	1000
4	4745	19.667798854914	1000
4	4748	19.683088133718	1000
4	4751	19.729453168394	1000
4	4754	19.756944037057	1000
4	4757	19.767547514179	1000
4	4760	19.778192890615	1000
4	4763	19.77861130568	1000
4	4766	19.856853293912	1000
4	4769	19.858546196335	1000
4	4772	19.874727115352	1000
4	4775	19.895372568137	1000
4	4778	19.900975316639	1000
4	4781	19.903605912769	1000
4	4784	19.904853715511	1000
4	4787	19.921422522176	1000
4	4790	19.928654601498	1000
4	4793	19.943663926925	1000
4	4796	19.973302863296	1000
4	4799	19.975204957554	1000
4	4802	20.005389991834	1000
4	4805	20.011754710925	1000
4	4808	20.016125443291	1000
4	4811	20.050515005869	1000
4	4814	20.106585727574	1000
4	4817	20.109246844899	1000
4	4820	20.12208148873	1000
4	4823	20.123432733188	1000
4	4826	20.136061976826	1000
4	4829	20.15713728721	1000
4	4832	20.170980390892	1000
4	4835	20.177462067087	1000
4	4838	20.183257992834	1000
4	4841	20.189251130986	1000
4	4844	20.199941876742	1000
4	4847	20.225542798888	1000
4	4850	20.257294889556	1000
4	4853	20.257955076842	1000
4	4856	20.260360253995	1000
4	4859	20.261788688126	1000
4	4862	20.264366844608	1000
4	4865	20.269473777395	1000
4	4868	20.277949336897	1000
4	4871	20.289862903069	1000
4	4874	20.305670492308	1000
4	4877	20.332169965132	1000
4	4880	20.386385148323	1000
4	4883	20.399432107152	1000
4	4886	20.421832323207	1000
4	4889	20.439895357983	1000
4	4892	20.444305277651	1000
4	4895	20.469325218825	1000
4	4898	20.469849671856	1000
4	4901	20.469854080868	1000
4	4904	20.473692125464	1000
4	4907	20.481133061647	1000
4	4910	20.493338430124	1000
4	4913	20.494626383052	1000
4	4916	20.50804029631	1000
4	4919	20.527463000812	1000
4	4922	20.529922415148	1000
4	4925	20.536358705918	1000
4	4928	20.545165960702	1000
4	4931	20.552379495485	1000
4	4934	20.571682550574	1000
4	4937	20.610466810441	1000
4	4940	20.629717418991	1000
4	4943	20.630691846116	1000
4	4946	20.650304950514	1000
4	4949	20.651131960715	1000
4	4952	20.654361745352	1000
4	4955	20.656355773223	1000
4	4958	20.65899633996	1000
4	4961	20.668013669964	1000
4	4964	20.68137922867	1000
4	4967	20.689005044355	1000
4	4970	20.727540592512	1000
4	4973	20.730838451183	1000
4	4976	20.748121895025	1000
4	4979	20.772621372997	1000
4	4982	20.782529620856	1000
4	4985	20.789840202358	1000
4	4988	20.800721766884	1000
4	4991	20.807442162684	1000
4	4994	20.81716356405	1000
4	4997	20.8236370217	1000
4	5000	20.829776327113	1000
4	5003	20.84403928845	1000
4	5006	20.845208673995	1000
4	5009	20.847394738645	1000
4	5012	20.870256440817	1000
4	5015	20.887948893839	1000
4	5018	20.891915195923	1000
4	5021	20.897598882159	1000
4	5024	20.928847463372	1000
4	5027	20.949297539483	1000
4	5030	20.960731324939	1000
4	5033	20.963735808947	1000
4	5036	20.964278940611	1000
4	5039	20.97105087788	1000
4	5042	20.984450744124	1000
4	5045	21.005607443595	1000
4	5048	21.028589955654	1000
4	5051	21.028989856454	1000
4	5054	21.032348916123	1000
4	5057	21.037318650743	1000
4	5060	21.039828535722	1000
4	5063	21.059321654289	1000
4	5066	21.076826268333	1000
4	5069	21.085554984466	1000
4	5072	21.13439770246	1000
4	5075	21.136264342084	1000
4	5078	21.163853640507	1000
4	5081	21.165339509251	1000
4	5084	21.167477289144	1000
4	5087	21.181774675912	1000
4	5090	21.183167281264	1000
4	5093	21.193179527965	1000
4	5096	21.199721086761	1000
4	5099	21.215365453828	1000
4	5102	21.24307777821	1000
4	5105	21.260707187975	1000
4	5108	21.283447843464	1000
4	5111	21.283849847925	1000
4	5114	21.28830601262	1000
4	5117	21.297000009624	1000
4	5120	21.303453301928	1000
4	5123	21.30660925275	1000
4	5126	21.311025101516	1000
4	5129	21.345924566704	1000
4	5132	21.350105322064	1000
4	5135	21.355347010298	1000
4	5138	21.355391610354	1000
4	5141	21.377769584023	1000
4	5144	21.379788345895	1000
4	5147	21.382528394218	1000
4	5150	21.386065108336	1000
4	5153	21.411979612934	1000
4	5156	21.414754499028	1000
4	5159	21.43392024597	1000
4	5162	21.45372644906	1000
4	5165	21.485137380506	1000
4	5168	21.486611005498	1000
4	5171	21.489550752743	1000
4	5174	21.505850154974	1000
4	5177	21.508468038354	1000
4	5180	21.512516046017	1000
4	5183	21.514704983553	1000
4	5186	21.516979990141	1000
4	5189	21.524863008165	1000
4	5192	21.526257141371	1000
4	5195	21.530915086639	1000
4	5198	21.537589019929	1000
4	5201	21.537887273309	1000
4	5204	21.543786083703	1000
4	5207	21.544972297128	1000
4	5210	21.553136929405	1000
4	5213	21.57410328666	1000
4	5216	21.594576137058	1000
4	5219	21.595582567966	1000
4	5222	21.606614946075	1000
4	5225	21.628206620163	1000
4	5228	21.631467892499	1000
4	5231	21.648690003022	1000
4	5234	21.675260976419	1000
4	5237	21.694947424004	1000
4	5240	21.69630949422	1000
4	5243	21.696418709684	1000
4	5246	21.698972931655	1000
4	5249	21.702757309926	1000
4	5252	21.71424838268	1000
4	5255	21.720067805226	1000
4	5258	21.734652539848	1000
4	5261	21.739878838121	1000
4	5264	21.741891705039	1000
4	5267	21.746391340491	1000
4	5270	21.772274909038	1000
4	5273	21.810469008557	1000
4	5276	21.813259954591	1000
4	5279	21.831900524537	1000
4	5282	21.835732227836	1000
4	5285	21.861910614876	1000
4	5288	21.864082341324	1000
4	5291	21.877240272802	1000
4	5294	21.87829590772	1000
4	5297	21.922042680364	1000
4	5300	21.936515714425	1000
4	5303	21.958643650754	1000
4	5306	21.968678701082	1000
4	5309	21.976452230069	1000
4	5312	21.988122830088	1000
4	5315	21.997151012438	1000
4	5318	22.004755620549	1000
4	5321	22.021853561068	1000
4	5324	22.024208673711	1000
4	5327	22.026461585897	1000
4	5330	22.033245868415	1000
4	5333	22.037887023956	1000
4	5336	22.038811210246	1000
4	5339	22.061142247732	1000
4	5342	22.07886227688	1000
4	5345	22.088283360791	1000
4	5348	22.134829054739	1000
4	5351	22.135733499211	1000
4	5354	22.153197081296	1000
4	5357	22.156914093298	1000
4	5360	22.162431861163	1000
4	5363	22.165402316143	1000
4	5366	22.184075237271	1000
4	5369	22.185944422467	1000
4	5372	22.207936652342	1000
4	5375	22.22093817956	1000
4	5378	22.221668221651	1000
4	5381	22.24165916114	1000
4	5384	22.253517620655	1000
4	5387	22.281761927782	1000
4	5390	22.298336286791	1000
4	5393	22.308218663283	1000
4	5396	22.329953433697	1000
4	5399	22.333863030369	1000
4	5402	22.343364065436	1000
4	5405	22.34753523472	1000
4	5408	22.388916359933	1000
4	5411	22.39199360458	1000
4	5414	22.392183965358	1000
4	5417	22.396915683189	1000
4	5420	22.405293826504	1000
4	5423	22.405639101676	1000
4	5426	22.415470384897	1000
4	5429	22.440355026533	1000
4	5432	22.454993496481	1000
4	5435	22.466698609122	1000
4	5438	22.50417097018	1000
4	5441	22.542292074273	1000
4	5444	22.563157511621	1000
4	5447	22.574387532741	1000
4	5450	22.582415183675	1000
4	5453	22.582576050527	1000
4	5456	22.593760882384	1000
4	5459	22.647975673816	1000
4	5462	22.668427321398	1000
4	5465	22.673424505275	1000
4	5468	22.675403666464	1000
4	5471	22.693796645575	1000
4	5474	22.71014466545	1000
4	5477	22.751096667159	1000
4	5480	22.776034841835	1000
4	5483	22.78576889576	1000
4	5486	22.787050357428	1000
4	5489	22.79497853251	1000
4	5492	22.799495731207	1000
4	5495	22.80811505862	1000
4	5498	22.812424363296	1000
4	5501	22.836174999788	1000
4	5504	22.858494972226	1000
4	5507	22.863043160997	1000
4	5510	22.874026096872	1000
4	5513	22.880775331984	1000
4	5516	22.909550319235	1000
4	5519	22.912039937436	1000
4	5522	22.92639708922	1000
4	5525	22.968626860198	1000
4	5528	22.97093933124	1000
4	5531	22.973646586639	1000
4	5534	22.987845784118	1000
4	5537	23.005969255759	1000
4	5540	23.014062316357	1000
4	5543	23.025351975573	1000
4	5546	23.028221458307	1000
4	5549	23.035990695898	1000
4	5552	23.037417069741	1000
4	5555	23.042070138622	1000
4	5558	23.046092114704	1000
4	5561	23.053149463004	1000
4	5564	23.085082265402	1000
4	5567	23.087482242151	1000
4	5570	23.093639946756	1000
4	5573	23.105112719322	1000
4	5576	23.140262413778	1000
4	5579	23.141977060696	1000
4	5582	23.171971451116	1000
4	5585	23.17298578343	1000
4	5588	23.180850022565	1000
4	5591	23.188124629353	1000
4	5594	23.190947264463	1000
4	5597	23.196069852444	1000
4	5600	23.203335120922	1000
4	5603	23.227383698113	1000
4	5606	23.2646139286	1000
4	5609	23.273394730697	1000
4	5612	23.297886595447	1000
4	5615	23.309129770505	1000
4	5618	23.314282328184	1000
4	5621	23.31687327842	1000
4	5624	23.323268799345	1000
4	5627	23.332147245162	1000
4	5630	23.332692780396	1000
4	5633	23.334584437683	1000
4	5636	23.345585460387	1000
4	5639	23.348644192065	1000
4	5642	23.370436304703	1000
4	5645	23.375187394391	1000
4	5648	23.376516350435	1000
4	5651	23.377563069499	1000
4	5654	23.410761970787	1000
4	5657	23.412269005844	1000
4	5660	23.414091581621	1000
4	5663	23.437915658945	1000
4	5666	23.44143665081	1000
4	5669	23.454594276707	1000
4	5672	23.474955531914	1000
4	5675	23.486168396958	1000
4	5678	23.524064176224	1000
4	5681	23.538872532652	1000
4	5684	23.540308094908	1000
4	5687	23.550116576826	1000
4	5690	23.56531469516	1000
4	5693	23.58474596267	1000
4	5696	23.585066049914	1000
4	5699	23.600293687337	1000
4	5702	23.621256094591	1000
4	5705	23.63774060416	1000
4	5708	23.646358471381	1000
4	5711	23.653708806862	1000
4	5714	23.663275404753	1000
4	5717	23.677910279126	1000
4	5720	23.708664328396	1000
4	5723	23.72018207534	1000
4	5726	23.746435412384	1000
4	5729	23.760933465326	1000
4	5732	23.761782866704	1000
4	5735	23.77012052581	1000
4	5738	23.774171170297	1000
4	5741	23.778199779278	1000
4	5744	23.783479108054	1000
4	5747	23.788014464874	1000
4	5750	23.79838482235	1000
4	5753	23.81219385581	1000
4	5756	23.815949844365	1000
4	5759	23.817617715509	1000
4	5762	23.818345022164	1000
4	5765	23.828634290984	1000
4	5768	23.831105749003	1000
4	5771	23.831217241239	1000
4	5774	23.862749228333	1000
4	5777	23.871993206935	1000
4	5780	23.873157262259	1000
4	5783	23.895369347603	1000
4	5786	23.944407817518	1000
4	5789	23.951551369228	1000
4	5792	23.952072393712	1000
4	5795	23.953572976369	1000
4	5798	23.959341456707	1000
4	5801	23.985349995075	1000
4	5804	23.987272564931	1000
4	5807	24.008119144917	1000
4	5810	24.008300219365	1000
4	5813	24.015636563927	1000
4	5816	24.028043852845	1000
4	5819	24.028791203079	1000
4	5822	24.040237953967	1000
4	5825	24.074913707859	1000
4	5828	24.077009662185	1000
4	5831	24.092704402795	1000
4	5834	24.103975857627	1000
4	5837	24.106432377528	1000
4	5840	24.106507050405	1000
4	5843	24.106618984187	1000
4	5846	24.115732797685	1000
4	5849	24.150062896167	1000
4	5852	24.1624668609	1000
4	5855	24.177500610146	1000
4	5858	24.185672043875	1000
4	5861	24.196136142236	1000
4	5864	24.197757288243	1000
4	5867	24.222886651488	1000
4	5870	24.240051744974	1000
4	5873	24.315884402726	1000
4	5876	24.320125530145	1000
4	5879	24.323215520774	1000
4	5882	24.324820114693	1000
4	5885	24.364781073425	1000
4	5888	24.382998986411	1000
4	5891	24.385181920482	1000
4	5894	24.394835866678	1000
4	5897	24.401244346869	1000
4	5900	24.403215571243	1000
4	5903	24.405337462481	1000
4	5906	24.445052918617	1000
4	5909	24.449418421381	1000
4	5912	24.483470716625	1000
4	5915	24.484414180002	1000
4	5918	24.491826272375	1000
4	5921	24.493492163822	1000
4	5924	24.493549750338	1000
4	5927	24.503232693898	1000
4	5930	24.504683719617	1000
4	5933	24.520046388775	1000
4	5936	24.534418952872	1000
4	5939	24.536746819018	1000
4	5942	24.570861334207	1000
4	5945	24.586181723325	1000
4	5948	24.590427077499	1000
4	5951	24.605249905415	1000
4	5954	24.621048003251	1000
4	5957	24.626074735795	1000
4	5960	24.63172608504	1000
4	5963	24.637064788995	1000
4	5966	24.648569483607	1000
4	5969	24.676249823646	1000
4	5972	24.67853203486	1000
4	5975	24.70350451125	1000
4	5978	24.703841023676	1000
4	5981	24.716798696186	1000
4	5984	24.723220912564	1000
4	5987	24.742022141763	1000
4	5990	24.757349187943	1000
4	5993	24.765198793736	1000
4	5996	24.777588106307	1000
4	5999	24.785948503153	1000
4	6002	24.805973566555	1000
4	6005	24.813730653109	1000
4	6008	24.822617443539	1000
4	6011	24.826077960636	1000
4	6014	24.837225701788	1000
4	6017	24.841555701479	1000
4	6020	24.851888358389	1000
4	6023	24.854119660555	1000
4	6026	24.85620431918	1000
4	6029	24.86267974851	1000
4	6032	24.869358404046	1000
4	6035	24.873103892563	1000
4	6038	24.874797083133	1000
4	6041	24.875277082861	1000
4	6044	24.875583750135	1000
4	6047	24.879385790376	1000
4	6050	24.886821282397	1000
4	6053	24.90236746809	1000
4	6056	24.910096820109	1000
4	6059	24.938224058764	1000
4	6062	24.938654318587	1000
4	6065	24.941045401369	1000
4	6068	24.946004607855	1000
4	6071	24.956343289598	1000
4	6074	24.979329643112	1000
4	6077	24.984502767111	1000
4	6080	24.988246278859	1000
4	6083	24.989012925034	1000
7	18	0.015071169097	1008
7	21	0.02197739946	1008
7	24	0.048659692524	1008
7	27	0.088438639883	1008
7	30	0.094241865142	1008
7	33	0.113068618553	1008
7	36	0.122100707913	1008
7	39	0.132173902148	1008
7	42	0.163352951178	1008
7	45	0.164237175444	1008
7	48	0.165331107757	1008
7	51	0.165576214818	1008
7	54	0.187026066779	1008
7	57	0.205095477883	1008
7	60	0.229579248978	1008
7	63	0.275721911408	1008
7	66	0.294984786093	1008
7	69	0.302411939609	1008
7	72	0.320610371297	1008
7	75	0.32212086421	1008
7	78	0.334378046702	1008
7	81	0.336234802868	1008
7	84	0.370967848604	1008
7	87	0.379821776105	1008
7	90	0.386248564748	1008
7	93	0.389935928974	1008
7	96	0.407794986883	1008
7	99	0.415103975961	1008
7	102	0.425187992428	1008
7	105	0.425415615258	1008
7	108	0.436952186527	1008
7	111	0.448316146653	1008
7	114	0.459830722381	1008
7	117	0.494365702636	1008
7	120	0.508107370092	1008
7	123	0.513453592033	1008
7	126	0.520347980914	1008
7	129	0.534701274507	1008
7	132	0.535446657993	1008
7	135	0.548633607604	1008
7	138	0.561960776952	1008
7	141	0.564795257425	1008
7	144	0.566451601686	1008
7	147	0.570999145257	1008
7	150	0.57642436998	1008
7	153	0.586557503502	1008
7	156	0.593485395232	1008
7	159	0.646939357386	1008
7	162	0.648230978684	1008
7	165	0.651042596909	1008
7	168	0.653153559454	1008
7	171	0.665858472035	1008
7	174	0.669363438434	1008
7	177	0.676898737406	1008
7	180	0.680262061508	1008
7	183	0.682339590982	1008
7	186	0.6837430559	1008
7	189	0.696559922266	1008
7	192	0.698344469497	1008
7	195	0.700971036655	1008
7	198	0.706491204148	1008
7	201	0.727135184041	1008
7	204	0.728360922619	1008
7	207	0.75019874965	1008
7	210	0.751411166954	1008
7	213	0.796399544469	1008
7	216	0.803987583626	1008
7	219	0.84913071104	1008
7	222	0.860272453003	1008
7	225	0.876403396269	1008
7	228	0.876883111858	1008
7	231	0.88087203475	1008
7	234	0.882408715934	1008
7	237	0.886622829007	1008
7	240	0.888139492644	1008
7	243	0.89273190403	1008
7	246	0.899150516539	1008
7	249	0.899946085357	1008
7	252	0.914096359682	1008
7	255	0.924129530066	1008
7	258	0.927830508147	1008
7	261	0.936719615552	1008
7	264	0.937903419253	1008
7	267	0.948198166946	1008
7	270	0.97998923809	1008
7	273	0.984591960659	1008
7	276	0.99780211158	1008
7	279	0.999498080143	1008
7	282	1.014617285864	1008
7	285	1.018717135868	1008
7	288	1.021145341131	1008
7	291	1.031742889635	1008
7	294	1.031986639141	1008
7	297	1.05317553201	1008
7	300	1.053232010496	1008
7	303	1.0668236202	1008
7	306	1.07060028013	1008
7	309	1.086545374615	1008
7	312	1.125847092748	1008
7	315	1.129279344418	1008
7	318	1.139580060032	1008
7	321	1.150339150481	1008
7	324	1.16052980022	1008
7	327	1.163558840135	1008
7	330	1.200186220018	1008
7	333	1.207297708347	1008
7	336	1.229779226905	1008
7	339	1.244206089712	1008
7	342	1.248442331311	1008
7	345	1.268613397766	1008
7	348	1.274673622739	1008
7	351	1.300227615492	1008
7	354	1.310674045408	1008
7	357	1.336292010808	1008
7	360	1.350444606012	1008
7	363	1.365947517238	1008
7	366	1.374297110769	1008
7	369	1.411802731061	1008
7	372	1.424196295189	1008
7	375	1.430813047071	1008
7	378	1.442001881636	1008
7	381	1.442234439012	1008
7	384	1.446541565602	1008
7	387	1.459493407986	1008
7	390	1.463604603482	1008
7	393	1.475153104151	1008
7	396	1.481872636992	1008
7	399	1.483619524733	1008
7	402	1.48787021432	1008
7	405	1.497996875991	1008
7	408	1.508721624931	1008
7	411	1.518970581759	1008
7	414	1.531678694384	1008
7	417	1.544348889688	1008
7	420	1.551124215701	1008
7	423	1.578347823613	1008
7	426	1.58384589822	1008
7	429	1.590715436837	1008
7	432	1.617414412724	1008
7	435	1.637105183659	1008
7	438	1.651709417603	1008
7	441	1.652976769327	1008
7	444	1.683208154888	1008
7	447	1.698239445187	1008
7	450	1.779424131426	1008
7	453	1.781366572467	1008
7	456	1.805677478272	1008
7	459	1.807805385174	1008
7	462	1.819276982261	1008
7	465	1.820863186776	1008
7	468	1.843470333415	1008
7	471	1.863230962631	1008
7	474	1.873333534172	1008
7	477	1.879607974533	1008
7	480	1.880468079145	1008
7	483	1.89481334194	1008
7	486	1.902064930802	1008
7	489	1.917428941248	1008
7	492	1.941582214082	1008
7	495	1.986101741185	1008
7	498	2.009340668035	1008
7	501	2.009482066818	1008
7	504	2.014837100664	1008
7	507	2.030548681032	1008
7	510	2.032808220735	1008
7	513	2.041641793935	1008
7	516	2.04231223457	1008
7	519	2.044989905067	1008
7	522	2.045214250712	1008
7	525	2.064155203377	1008
7	528	2.067197271839	1008
7	531	2.072281157055	1008
7	534	2.103867783406	1008
7	537	2.118493345046	1008
7	540	2.118881626702	1008
7	543	2.121041114801	1008
7	546	2.132698900698	1008
7	549	2.143029984338	1008
7	552	2.146290001182	1008
7	555	2.178946180253	1008
7	558	2.190368136744	1008
7	561	2.199573092599	1008
7	564	2.210269635522	1008
7	567	2.225987059978	1008
7	570	2.230473697929	1008
7	573	2.236568079401	1008
7	576	2.239394374282	1008
7	579	2.241866758864	1008
7	582	2.276535665967	1008
7	585	2.292679835166	1008
7	588	2.300770770002	1008
7	591	2.303866923169	1008
7	594	2.307389014992	1008
7	597	2.308106386547	1008
7	600	2.314945157331	1008
7	603	2.319429194864	1008
7	606	2.333731492108	1008
7	609	2.339424487592	1008
7	612	2.341800100416	1008
7	615	2.342099960656	1008
7	618	2.342935372709	1008
7	621	2.356585834775	1008
7	624	2.363840809395	1008
7	627	2.373070247008	1008
7	630	2.400308327197	1008
7	633	2.455984157513	1008
7	636	2.458918049778	1008
7	639	2.471972902981	1008
7	642	2.475640161803	1008
7	645	2.475890568426	1008
7	648	2.492935169893	1008
7	651	2.497563422222	1008
7	654	2.503367082872	1008
7	657	2.514017106014	1008
7	660	2.535354826056	1008
7	663	2.547252877571	1008
7	666	2.571982732462	1008
7	669	2.57581762832	1008
7	672	2.595014261622	1008
7	675	2.597478434847	1008
7	678	2.634116650882	1008
7	681	2.648074010283	1008
7	684	2.650986632207	1008
7	687	2.686320395536	1008
7	690	2.702070491452	1008
7	693	2.705585908954	1008
7	696	2.708464991187	1008
7	699	2.71722772317	1008
7	702	2.717539696112	1008
7	705	2.720329996333	1008
7	708	2.726964056781	1008
7	711	2.732588174493	1008
7	714	2.74006212621	1008
7	717	2.743964718426	1008
7	720	2.754570146298	1008
7	723	2.778498616713	1008
7	726	2.779999007792	1008
7	729	2.788741293905	1008
7	732	2.790440998323	1008
7	735	2.805582750405	1008
7	738	2.811634109604	1008
7	741	2.821634648492	1008
7	744	2.824064153656	1008
7	747	2.825941862901	1008
7	750	2.833976349991	1008
7	753	2.839249814677	1008
7	756	2.873097446058	1008
7	759	2.890492103375	1008
7	762	2.907063660523	1008
7	765	2.935149564051	1008
7	768	2.93619486705	1008
7	771	2.945835568202	1008
7	774	2.956374149147	1008
7	777	2.995596105957	1008
7	780	2.999742340962	1008
7	783	3.003048676206	1008
7	786	3.004316922295	1008
7	789	3.004515715428	1008
7	792	3.036346417614	1008
7	795	3.049647334665	1008
7	798	3.068101279239	1008
7	801	3.072072197813	1008
7	804	3.082666764352	1008
7	807	3.08345986848	1008
7	810	3.091437561475	1008
7	813	3.136965846872	1008
7	816	3.162064525743	1008
7	819	3.167017284144	1008
7	822	3.20612433587	1008
7	825	3.209287261224	1008
7	828	3.24507366933	1008
7	831	3.279113351651	1008
7	834	3.298378856808	1008
7	837	3.310324420528	1008
7	840	3.335209558085	1008
7	843	3.33937059773	1008
7	846	3.362051818107	1008
7	849	3.373595961226	1008
7	852	3.373755864164	1008
7	855	3.378874293908	1008
7	858	3.380798303042	1008
7	861	3.4288936989	1008
7	864	3.436703267008	1008
7	867	3.44495858875	1008
7	870	3.457200833805	1008
7	873	3.462718329618	1008
7	876	3.464485030066	1008
7	879	3.485204630623	1008
7	882	3.487731030081	1008
7	885	3.496323573897	1008
7	888	3.499371710437	1008
7	891	3.500607330802	1008
7	894	3.524390014895	1008
7	897	3.567697306955	1008
7	900	3.606576862558	1008
7	903	3.635021513525	1008
7	906	3.652870670577	1008
7	909	3.657732865165	1008
7	912	3.658747819066	1008
7	915	3.66502343091	1008
7	918	3.66819467648	1008
7	921	3.669900182617	1008
7	924	3.670559071088	1008
7	927	3.686076845394	1008
7	930	3.686214764397	1008
7	933	3.703881214293	1008
7	936	3.705788412449	1008
7	939	3.706782759724	1008
7	942	3.707909254291	1008
7	945	3.721287903354	1008
7	948	3.724666191624	1008
7	951	3.731214084201	1008
7	954	3.740994304172	1008
7	957	3.764634994959	1008
7	960	3.780216342586	1008
7	963	3.783998262931	1008
7	966	3.785689877544	1008
7	969	3.786373475934	1008
7	972	3.790681011755	1008
7	975	3.794328670466	1008
7	978	3.80163744393	1008
7	981	3.815434340583	1008
7	984	3.829708295599	1008
7	987	3.83370913566	1008
7	990	3.83944415151	1008
7	993	3.841842417965	1008
7	996	3.860487363989	1008
7	999	3.861189698776	1008
7	1002	3.875517859223	1008
7	1005	3.893616442003	1008
7	1008	3.911645395528	1008
7	1011	3.915249296491	1008
7	1014	3.92086657393	1008
7	1017	3.931495701682	1008
7	1020	3.935318707857	1008
7	1023	3.940879388187	1008
7	1026	3.943513006118	1008
7	1029	3.950904037523	1008
7	1032	3.951451694117	1008
7	1035	3.970752708306	1008
7	1038	3.971713654577	1008
7	1041	3.980492198647	1008
7	1044	3.984889614149	1008
7	1047	3.995229624051	1008
7	1050	4.033687330006	1008
7	1053	4.046134271135	1008
7	1056	4.046566305092	1008
7	1059	4.053320207514	1008
7	1062	4.061880818908	1008
7	1065	4.07109985901	1008
7	1068	4.084825403559	1008
7	1071	4.088727454005	1008
7	1074	4.090382892788	1008
7	1077	4.096367200782	1008
7	1080	4.133961154657	1008
7	1083	4.136447376844	1008
7	1086	4.164566256005	1008
7	1089	4.17398430024	1008
7	1092	4.18131009438	1008
7	1095	4.206959154665	1008
7	1098	4.214322405182	1008
7	1101	4.229777948883	1008
7	1104	4.235888378725	1008
7	1107	4.264014814415	1008
7	1110	4.278069978754	1008
7	1113	4.29250254416	1008
7	1116	4.29726751556	1008
7	1119	4.314232915514	1008
7	1122	4.326362145471	1008
7	1125	4.329655707735	1008
7	1128	4.331755648314	1008
7	1131	4.350854321788	1008
7	1134	4.389233381509	1008
7	1137	4.396586326847	1008
7	1140	4.407314343679	1008
7	1143	4.430714066621	1008
7	1146	4.438046757356	1008
7	1149	4.474454068225	1008
7	1152	4.484743289456	1008
7	1155	4.505372121197	1008
7	1158	4.53411427867	1008
7	1161	4.554397098127	1008
7	1164	4.556480976886	1008
7	1167	4.568376330955	1008
7	1170	4.574474964404	1008
7	1173	4.575252152717	1008
7	1176	4.581872596068	1008
7	1179	4.585464536657	1008
7	1182	4.60815328651	1008
7	1185	4.608559748773	1008
7	1188	4.646884891245	1008
7	1191	4.652153815072	1008
7	1194	4.657447672801	1008
7	1197	4.657645232209	1008
7	1200	4.660103459415	1008
7	1203	4.666258583317	1008
7	1206	4.698048842464	1008
7	1209	4.699308035432	1008
7	1212	4.734179070676	1008
7	1215	4.758614600923	1008
7	1218	4.765879806303	1008
7	1221	4.770626593508	1008
7	1224	4.77380581276	1008
7	1227	4.785243283219	1008
7	1230	4.78564689027	1008
7	1233	4.785835639755	1008
7	1236	4.792555740235	1008
7	1239	4.793401763615	1008
7	1242	4.796885044596	1008
7	1245	4.799884454396	1008
7	1248	4.803387807257	1008
7	1251	4.80507351586	1008
7	1254	4.805218826801	1008
7	1257	4.806691406889	1008
7	1260	4.818254519244	1008
7	1263	4.862169264666	1008
7	1266	4.917852624617	1008
7	1269	4.924164994166	1008
7	1272	4.92629951526	1008
7	1275	4.938518126206	1008
7	1278	4.946605447537	1008
7	1281	5.001179333759	1008
7	1284	5.001989743642	1008
7	1287	5.020337010091	1008
7	1290	5.024419856726	1008
7	1293	5.027735519041	1008
7	1296	5.040769958775	1008
7	1299	5.044159319319	1008
7	1302	5.057313630051	1008
7	1305	5.066054160927	1008
7	1308	5.072675786387	1008
7	1311	5.082383542729	1008
7	1314	5.086443696153	1008
7	1317	5.1011572827	1008
7	1320	5.107588068244	1008
7	1323	5.112953747075	1008
7	1326	5.134122795781	1008
7	1329	5.165200709527	1008
7	1332	5.16576590078	1008
7	1335	5.16894328806	1008
7	1338	5.17408537931	1008
7	1341	5.194331998775	1008
7	1344	5.245128188331	1008
7	1347	5.286802456802	1008
7	1350	5.315042474019	1008
7	1353	5.319263682644	1008
7	1356	5.37722032562	1008
7	1359	5.380663234765	1008
7	1362	5.382006569259	1008
7	1365	5.418186188525	1008
7	1368	5.421375987113	1008
7	1371	5.435421215873	1008
7	1374	5.436142756303	1008
7	1377	5.451886313276	1008
7	1380	5.47750274201	1008
7	1383	5.481319396552	1008
7	1386	5.487037586404	1008
7	1389	5.492664124272	1008
7	1392	5.50924163323	1008
7	1395	5.51250030273	1008
7	1398	5.514763079421	1008
7	1401	5.521921678424	1008
7	1404	5.526278624506	1008
7	1407	5.54820893972	1008
7	1410	5.551466579317	1008
7	1413	5.559841829903	1008
7	1416	5.594130934077	1008
7	1419	5.60619232186	1008
7	1422	5.630427335899	1008
7	1425	5.664230276659	1008
7	1428	5.680902578742	1008
7	1431	5.695333266879	1008
7	1434	5.73662459545	1008
7	1437	5.798846148526	1008
7	1440	5.806060004283	1008
7	1443	5.806942080812	1008
7	1446	5.811099280742	1008
7	1449	5.81308279689	1008
7	1452	5.819567629261	1008
7	1455	5.821256571126	1008
7	1458	5.83237623433	1008
7	1461	5.838167136912	1008
7	1464	5.865256858401	1008
7	1467	5.906484339111	1008
7	1470	5.915983648246	1008
7	1473	5.91983973188	1008
7	1476	5.930604368049	1008
7	1479	5.957852889338	1008
7	1482	5.964118224991	1008
7	1485	5.973755866254	1008
7	1488	5.977559594813	1008
7	1491	5.984853011982	1008
7	1494	5.991017239341	1008
7	1497	5.994444066387	1008
7	1500	6.002903458244	1008
7	1503	6.007362847302	1008
7	1506	6.012965219425	1008
7	1509	6.021897758562	1008
7	1512	6.038561885848	1008
7	1515	6.043430601974	1008
7	1518	6.074379959543	1008
7	1521	6.098173710506	1008
7	1524	6.098772697735	1008
7	1527	6.102283304949	1008
7	1530	6.109373327594	1008
7	1533	6.110699518113	1008
7	1536	6.115840810458	1008
7	1539	6.132010196342	1008
7	1542	6.145702716353	1008
7	1545	6.157389259451	1008
7	1548	6.172265636418	1008
7	1551	6.175017442478	1008
7	1554	6.180034542385	1008
7	1557	6.193567667588	1008
7	1560	6.218934549364	1008
7	1563	6.228349229727	1008
7	1566	6.23233635721	1008
7	1569	6.232704778486	1008
7	1572	6.247573216575	1008
7	1575	6.247668200733	1008
7	1578	6.25326376505	1008
7	1581	6.262337760023	1008
7	1584	6.292967477946	1008
7	1587	6.294092542597	1008
7	1590	6.300341888975	1008
7	1593	6.300637252704	1008
7	1596	6.305671004586	1008
7	1599	6.31735267511	1008
7	1602	6.321279199686	1008
7	1605	6.324104070084	1008
7	1608	6.325579620887	1008
7	1611	6.335908197377	1008
7	1614	6.3501681473	1008
7	1617	6.363543479336	1008
7	1620	6.39922197941	1008
7	1623	6.399254461905	1008
7	1626	6.411756595483	1008
7	1629	6.422763857046	1008
7	1632	6.433426201594	1008
7	1635	6.472913987557	1008
7	1638	6.473118175042	1008
7	1641	6.487425964333	1008
7	1644	6.507589353134	1008
7	1647	6.516144830884	1008
7	1650	6.521021785285	1008
7	1653	6.539797663893	1008
7	1656	6.541025285265	1008
7	1659	6.548026807333	1008
7	1662	6.556833246937	1008
7	1665	6.571041579773	1008
7	1668	6.572184993567	1008
7	1671	6.575286504552	1008
7	1674	6.581624232441	1008
7	1677	6.593339736717	1008
7	1680	6.619499982083	1008
7	1683	6.631073979224	1008
7	1686	6.632792963669	1008
7	1689	6.680090467885	1008
7	1692	6.704739097691	1008
7	1695	6.713122340494	1008
7	1698	6.743788553094	1008
7	1701	6.75314297344	1008
7	1704	6.783958164984	1008
7	1707	6.805214404816	1008
7	1710	6.846626526368	1008
7	1713	6.876902735904	1008
7	1716	6.877343124747	1008
7	1719	6.879648271661	1008
7	1722	6.885562816881	1008
7	1725	6.922037195963	1008
7	1728	6.926317790995	1008
7	1731	6.928416714116	1008
7	1734	6.954507509002	1008
7	1737	6.961603142429	1008
7	1740	6.990218526548	1008
7	1743	6.992314060106	1008
7	1746	7.00529928272	1008
7	1749	7.012262757776	1008
7	1752	7.013217599637	1008
7	1755	7.027524626542	1008
7	1758	7.030935263464	1008
7	1761	7.031420322396	1008
7	1764	7.03216211618	1008
7	1767	7.032918397511	1008
7	1770	7.061515216789	1008
7	1773	7.077674744251	1008
7	1776	7.105075472664	1008
7	1779	7.118473695547	1008
7	1782	7.127506931371	1008
7	1785	7.131863497224	1008
7	1788	7.206214418649	1008
7	1791	7.211610979064	1008
7	1794	7.219244220516	1008
7	1797	7.224946733781	1008
7	1800	7.271610470454	1008
7	1803	7.273913965277	1008
7	1806	7.278683714236	1008
7	1809	7.292370007936	1008
7	1812	7.293153531084	1008
7	1815	7.30436849608	1008
7	1818	7.312161424802	1008
7	1821	7.316170325799	1008
7	1824	7.319438540515	1008
7	1827	7.328109767365	1008
7	1830	7.333614782997	1008
7	1833	7.340931929071	1008
7	1836	7.345872336005	1008
7	1839	7.3881501521	1008
7	1842	7.389868831358	1008
7	1845	7.391090619062	1008
7	1848	7.396138631131	1008
7	1851	7.406867901789	1008
7	1854	7.419784587302	1008
7	1857	7.425859754907	1008
7	1860	7.512661376341	1008
7	1863	7.517865769986	1008
7	1866	7.533201795536	1008
7	1869	7.545381303036	1008
7	1872	7.565504519832	1008
7	1875	7.610374301568	1008
7	1878	7.636839111214	1008
7	1881	7.65419480208	1008
7	1884	7.668572618734	1008
7	1887	7.673477230585	1008
7	1890	7.67539482795	1008
7	1893	7.676171031212	1008
7	1896	7.679494337916	1008
7	1899	7.686287892536	1008
7	1902	7.695145533447	1008
7	1905	7.712943614343	1008
7	1908	7.75119822441	1008
7	1911	7.752695741517	1008
7	1914	7.754053821506	1008
7	1917	7.764744067129	1008
7	1920	7.781160715386	1008
7	1923	7.803779090756	1008
7	1926	7.836734113199	1008
7	1929	7.885933324711	1008
7	1932	7.892059266663	1008
7	1935	7.897802185516	1008
7	1938	7.899721516076	1008
7	1941	7.913581210479	1008
7	1944	7.926413183179	1008
7	1947	7.950184646732	1008
7	1950	7.951412468487	1008
7	1953	7.959676998614	1008
7	1956	7.970117957538	1008
7	1959	7.973435809747	1008
7	1962	7.975657682389	1008
7	1965	7.999215161864	1008
7	1968	7.999938978149	1008
7	1971	8.007571583802	1008
7	1974	8.009048909261	1008
7	1977	8.016377959359	1008
7	1980	8.063299648595	1008
7	1983	8.069913303975	1008
7	1986	8.093262718982	1008
7	1989	8.09476016925	1008
7	1992	8.098557297944	1008
7	1995	8.104763301069	1008
7	1998	8.11088945198	1008
7	2001	8.124243817719	1008
7	2004	8.129316095176	1008
7	2007	8.144327479104	1008
7	2010	8.156560221361	1008
7	2013	8.162673363484	1008
7	2016	8.169455903102	1008
7	2019	8.180895334277	1008
7	2022	8.181766726974	1008
7	2025	8.20250583945	1008
[...]
7	3954	16.172596357476	1008
7	3957	16.190482763007	1008
7	3960	16.252350181144	1008
7	3963	16.263797154224	1008
7	3966	16.264251191766	1008
7	3969	16.264423440222	1008
7	3972	16.269447938904	1008
7	3975	16.290259229129	1008
7	3978	16.314390284394	1008
7	3981	16.353263061829	1008
7	3984	16.354071125867	1008
7	3987	16.354618265178	1008
7	3990	16.383959611531	1008
7	3993	16.388326539081	1008
7	3996	16.398123541814	1008
7	3999	16.446632459054	1008
7	4002	16.45277134054	1008
7	4005	16.465926092407	1008
7	4008	16.472073604172	1008
7	4011	16.489615891971	1008
7	4014	16.49861795702	1008
7	4017	16.501872154335	1008
7	4020	16.505670172641	1008
7	4023	16.509252002787	1008
7	4026	16.518371663002	1008
7	4029	16.532947580289	1008
7	4032	16.568724777234	1008
7	4035	16.582938246426	1008
7	4038	16.601173020378	1008
7	4041	16.603393459275	1008
7	4044	16.609015518709	1008
7	4047	16.615424244861	1008
7	4050	16.629339132315	1008
7	4053	16.633549014196	1008
7	4056	16.637885679588	1008
7	4059	16.643164292854	1008
7	4062	16.663112161499	1008
7	4065	16.673453510567	1008
7	4068	16.674392646742	1008
7	4071	16.675370370818	1008
7	4074	16.680939334713	1008
7	4077	16.698398893503	1008
7	4080	16.7124022329	1008
7	4083	16.727173525468	1008
7	4086	16.744664951047	1008
7	4089	16.748726807778	1008
7	4092	16.758262490918	1008
7	4095	16.767668616862	1008
7	4098	16.783816551112	1008
7	4101	16.821539146115	1008
7	4104	16.825447740603	1008
7	4107	16.844364518231	1008
7	4110	16.85730919478	1008
7	4113	16.86772599984	1008
7	4116	16.885619448434	1008
7	4119	16.92021524947	1008
7	4122	16.920663827221	1008
7	4125	16.922577405931	1008
7	4128	16.939518584753	1008
7	4131	16.940568718752	1008
7	4134	16.949279830627	1008
7	4137	16.952259225227	1008
7	4140	16.956106577115	1008
7	4143	16.970628096845	1008
7	4146	16.970995992394	1008
7	4149	16.995789030739	1008
7	4152	17.002843216096	1008
7	4155	17.011218559191	1008
7	4158	17.020538155846	1008
7	4161	17.03298421844	1008
7	4164	17.03805903183	1008
7	4167	17.039338133672	1008
7	4170	17.043937510536	1008
7	4173	17.046146634632	1008
7	4176	17.055893403209	1008
7	4179	17.060486614525	1008
7	4182	17.098546851209	1008
7	4185	17.139030168881	1008
7	4188	17.150645152983	1008
7	4191	17.162177386742	1008
7	4194	17.21288058956	1008
7	4197	17.23907510613	1008
7	4200	17.256456715881	1008
7	4203	17.260972088522	1008
7	4206	17.26643184254	1008
7	4209	17.269128581724	1008
7	4212	17.277141800336	1008
7	4215	17.332854418156	1008
7	4218	17.362040041455	1008
7	4221	17.363551555278	1008
7	4224	17.363857711263	1008
7	4227	17.391326356399	1008
7	4230	17.400571105333	1008
7	4233	17.403251676534	1008
7	4236	17.416689215025	1008
7	4239	17.429090634762	1008
7	4242	17.43065310899	1008
7	4245	17.434259889135	1008
7	4248	17.435003389263	1008
7	4251	17.437829938022	1008
7	4254	17.439532927546	1008
7	4257	17.442109621075	1008
7	4260	17.455989621972	1008
7	4263	17.456598824181	1008
7	4266	17.457887904094	1008
7	4269	17.45961675483	1008
7	4272	17.464183820387	1008
7	4275	17.468442515469	1008
7	4278	17.471975995586	1008
7	4281	17.488637314838	1008
7	4284	17.563350133231	1008
7	4287	17.572512400434	1008
7	4290	17.607144761549	1008
7	4293	17.61320706216	1008
7	4296	17.614560820057	1008
7	4299	17.620867499689	1008
7	4302	17.625081400832	1008
7	4305	17.633241968211	1008
7	4308	17.646083794367	1008
7	4311	17.653501388838	1008
7	4314	17.686331474987	1008
7	4317	17.712260837512	1008
7	4320	17.726787876681	1008
7	4323	17.734860599761	1008
7	4326	17.736555039978	1008
7	4329	17.742625368977	1008
7	4332	17.75725040853	1008
7	4335	17.761274160245	1008
7	4338	17.762591778924	1008
7	4341	17.791210142643	1008
7	4344	17.806025422157	1008
7	4347	17.817488184545	1008
7	4350	17.836359608396	1008
7	4353	17.858028402568	1008
7	4356	17.865955609888	1008
7	4359	17.891518190075	1008
7	4362	17.921301460588	1008
7	4365	17.925103514188	1008
7	4368	17.936327525972	1008
7	4371	17.945300896113	1008
7	4374	17.954565772641	1008
7	4377	17.987868192266	1008
7	4380	17.992237572093	1008
7	4383	18.041442392317	1008
7	4386	18.06933192454	1008
7	4389	18.076697811325	1008
7	4392	18.097106799878	1008
7	4395	18.114693292457	1008
7	4398	18.128287823576	1008
7	4401	18.132912842212	1008
7	4404	18.13553744739	1008
7	4407	18.148897080514	1008
7	4410	18.171113153502	1008
7	4413	18.171309789313	1008
7	4416	18.18366341593	1008
7	4419	18.19068296128	1008
7	4422	18.218086679713	1008
7	4425	18.222740650578	1008
7	4428	18.230454316395	1008
7	4431	18.239131832159	1008
7	4434	18.24094784121	1008
7	4437	18.255922615813	1008
7	4440	18.277219769863	1008
7	4443	18.277935614289	1008
7	4446	18.282068993961	1008
7	4449	18.282534441217	1008
7	4452	18.320166545595	1008
7	4455	18.33336798432	1008
7	4458	18.373325814378	1008
7	4461	18.382424298023	1008
7	4464	18.401862310511	1008
7	4467	18.407491107905	1008
7	4470	18.412731216	1008
7	4473	18.418434166234	1008
7	4476	18.431304664196	1008
7	4479	18.436649860457	1008
7	4482	18.464325056415	1008
7	4485	18.513415170277	1008
7	4488	18.513785958382	1008
7	4491	18.516368409561	1008
7	4494	18.517797190658	1008
7	4497	18.518316641632	1008
7	4500	18.521417864993	1008
7	4503	18.528522148219	1008
7	4506	18.550289500166	1008
7	4509	18.553299131354	1008
7	4512	18.561472456378	1008
7	4515	18.593318396103	1008
7	4518	18.606521489256	1008
7	4521	18.625720035265	1008
7	4524	18.635328662657	1008
7	4527	18.682556131646	1008
7	4530	18.693216216302	1008
7	4533	18.693775162611	1008
7	4536	18.696422665313	1008
7	4539	18.702648427207	1008
7	4542	18.713682292564	1008
7	4545	18.731419570453	1008
7	4548	18.737814096805	1008
7	4551	18.752671002025	1008
7	4554	18.771391320661	1008
7	4557	18.775971018037	1008
7	4560	18.822485234266	1008
7	4563	18.835071328216	1008
7	4566	18.860614714169	1008
7	4569	18.870356198875	1008
7	4572	18.886595301344	1008
7	4575	18.904259832693	1008
7	4578	18.932923874236	1008
7	4581	18.934879040108	1008
7	4584	18.944684081957	1008
7	4587	18.951395420851	1008
7	4590	18.982187627758	1008
7	4593	18.983520076223	1008
7	4596	19.032117500257	1008
7	4599	19.057114203958	1008
7	4602	19.058034525442	1008
7	4605	19.066137420023	1008
7	4608	19.081308868519	1008
7	4611	19.097388740841	1008
7	4614	19.125825512372	1008
7	4617	19.145130696143	1008
7	4620	19.149599651835	1008
7	4623	19.15787991154	1008
7	4626	19.172399229251	1008
7	4629	19.174187312268	1008
7	4632	19.17677523371	1008
7	4635	19.184646431972	1008
7	4638	19.188896496876	1008
7	4641	19.212711245331	1008
7	4644	19.223301958165	1008
7	4647	19.228446735864	1008
7	4650	19.251119179424	1008
7	4653	19.270728770099	1008
7	4656	19.347648072805	1008
7	4659	19.370200037793	1008
7	4662	19.376622616128	1008
7	4665	19.378259312316	1008
7	4668	19.400298454449	1008
7	4671	19.401037869258	1008
7	4674	19.406212272238	1008
7	4677	19.436481778133	1008
7	4680	19.475340462989	1008
7	4683	19.487619112422	1008
7	4686	19.501621098756	1008
7	4689	19.502141683139	1008
7	4692	19.510812109067	1008
7	4695	19.520310975556	1008
7	4698	19.525298992814	1008
7	4701	19.526151749412	1008
7	4704	19.529271114213	1008
7	4707	19.534588817695	1008
7	4710	19.54144298832	1008
7	4713	19.552169320184	1008
7	4716	19.56754784222	1008
7	4719	19.572134074196	1008
7	4722	19.576921081054	1008
7	4725	19.577159738342	1008
7	4728	19.577660542963	1008
7	4731	19.5812385321	1008
7	4734	19.597414728608	1008
7	4737	19.609291193462	1008
7	4740	19.626916302415	1008
7	4743	19.644496168873	1008
7	4746	19.667798854914	1008
7	4749	19.683088133718	1008
7	4752	19.729453168394	1008
7	4755	19.756944037057	1008
7	4758	19.767547514179	1008
7	4761	19.778192890615	1008
7	4764	19.77861130568	1008
7	4767	19.856853293912	1008
7	4770	19.858546196335	1008
7	4773	19.874727115352	1008
7	4776	19.895372568137	1008
7	4779	19.900975316639	1008
7	4782	19.903605912769	1008
7	4785	19.904853715511	1008
7	4788	19.921422522176	1008
7	4791	19.928654601498	1008
7	4794	19.943663926925	1008
7	4797	19.973302863296	1008
7	4800	19.975204957554	1008
7	4803	20.005389991834	1008
7	4806	20.011754710925	1008
7	4809	20.016125443291	1008
7	4812	20.050515005869	1008
7	4815	20.106585727574	1008
7	4818	20.109246844899	1008
7	4821	20.12208148873	1008
7	4824	20.123432733188	1008
7	4827	20.136061976826	1008
7	4830	20.15713728721	1008
7	4833	20.170980390892	1008
7	4836	20.177462067087	1008
7	4839	20.183257992834	1008
7	4842	20.189251130986	1008
7	4845	20.199941876742	1008
7	4848	20.225542798888	1008
7	4851	20.257294889556	1008
7	4854	20.257955076842	1008
7	4857	20.260360253995	1008
7	4860	20.261788688126	1008
7	4863	20.264366844608	1008
7	4866	20.269473777395	1008
7	4869	20.277949336897	1008
7	4872	20.289862903069	1008
7	4875	20.305670492308	1008
7	4878	20.332169965132	1008
7	4881	20.386385148323	1008
7	4884	20.399432107152	1008
7	4887	20.421832323207	1008
7	4890	20.439895357983	1008
7	4893	20.444305277651	1008
7	4896	20.469325218825	1008
7	4899	20.469849671856	1008
7	4902	20.469854080868	1008
7	4905	20.473692125464	1008
7	4908	20.481133061647	1008
7	4911	20.493338430124	1008
7	4914	20.494626383052	1008
7	4917	20.50804029631	1008
7	4920	20.527463000812	1008
7	4923	20.529922415148	1008
7	4926	20.536358705918	1008
7	4929	20.545165960702	1008
7	4932	20.552379495485	1008
7	4935	20.571682550574	1008
7	4938	20.610466810441	1008
7	4941	20.629717418991	1008
7	4944	20.630691846116	1008
7	4947	20.650304950514	1008
7	4950	20.651131960715	1008
7	4953	20.654361745352	1008
7	4956	20.656355773223	1008
7	4959	20.65899633996	1008
7	4962	20.668013669964	1008
7	4965	20.68137922867	1008
7	4968	20.689005044355	1008
7	4971	20.727540592512	1008
7	4974	20.730838451183	1008
7	4977	20.748121895025	1008
7	4980	20.772621372997	1008
7	4983	20.782529620856	1008
7	4986	20.789840202358	1008
7	4989	20.800721766884	1008
7	4992	20.807442162684	1008
7	4995	20.81716356405	1008
7	4998	20.8236370217	1008
7	5001	20.829776327113	1008
7	5004	20.84403928845	1008
7	5007	20.845208673995	1008
7	5010	20.847394738645	1008
7	5013	20.870256440817	1008
7	5016	20.887948893839	1008
7	5019	20.891915195923	1008
7	5022	20.897598882159	1008
7	5025	20.928847463372	1008
7	5028	20.949297539483	1008
7	5031	20.960731324939	1008
7	5034	20.963735808947	1008
7	5037	20.964278940611	1008
7	5040	20.97105087788	1008
7	5043	20.984450744124	1008
7	5046	21.005607443595	1008
7	5049	21.028589955654	1008
7	5052	21.028989856454	1008
7	5055	21.032348916123	1008
7	5058	21.037318650743	1008
7	5061	21.039828535722	1008
7	5064	21.059321654289	1008
7	5067	21.076826268333	1008
7	5070	21.085554984466	1008
7	5073	21.13439770246	1008
7	5076	21.136264342084	1008
7	5079	21.163853640507	1008
7	5082	21.165339509251	1008
7	5085	21.167477289144	1008
7	5088	21.181774675912	1008
7	5091	21.183167281264	1008
7	5094	21.193179527965	1008
7	5097	21.199721086761	1008
7	5100	21.215365453828	1008
7	5103	21.24307777821	1008
7	5106	21.260707187975	1008
7	5109	21.283447843464	1008
7	5112	21.283849847925	1008
7	5115	21.28830601262	1008
7	5118	21.297000009624	1008
7	5121	21.303453301928	1008
7	5124	21.30660925275	1008
7	5127	21.311025101516	1008
7	5130	21.345924566704	1008
7	5133	21.350105322064	1008
7	5136	21.355347010298	1008
7	5139	21.355391610354	1008
7	5142	21.377769584023	1008
7	5145	21.379788345895	1008
7	5148	21.382528394218	1008
7	5151	21.386065108336	1008
7	5154	21.411979612934	1008
7	5157	21.414754499028	1008
7	5160	21.43392024597	1008
7	5163	21.45372644906	1008
7	5166	21.485137380506	1008
7	5169	21.486611005498	1008
7	5172	21.489550752743	1008
7	5175	21.505850154974	1008
7	5178	21.508468038354	1008
7	5181	21.512516046017	1008
7	5184	21.514704983553	1008
7	5187	21.516979990141	1008
7	5190	21.524863008165	1008
7	5193	21.526257141371	1008
7	5196	21.530915086639	1008
7	5199	21.537589019929	1008
7	5202	21.537887273309	1008
7	5205	21.543786083703	1008
7	5208	21.544972297128	1008
7	5211	21.553136929405	1008
7	5214	21.57410328666	1008
7	5217	21.594576137058	1008
7	5220	21.595582567966	1008
7	5223	21.606614946075	1008
7	5226	21.628206620163	1008
7	5229	21.631467892499	1008
7	5232	21.648690003022	1008
7	5235	21.675260976419	1008
7	5238	21.694947424004	1008
7	5241	21.69630949422	1008
7	5244	21.696418709684	1008
7	5247	21.698972931655	1008
7	5250	21.702757309926	1008
7	5253	21.71424838268	1008
7	5256	21.720067805226	1008
7	5259	21.734652539848	1008
7	5262	21.739878838121	1008
7	5265	21.741891705039	1008
7	5268	21.746391340491	1008
7	5271	21.772274909038	1008
7	5274	21.810469008557	1008
7	5277	21.813259954591	1008
7	5280	21.831900524537	1008
7	5283	21.835732227836	1008
7	5286	21.861910614876	1008
7	5289	21.864082341324	1008
7	5292	21.877240272802	1008
7	5295	21.87829590772	1008
7	5298	21.922042680364	1008
7	5301	21.936515714425	1008
7	5304	21.958643650754	1008
7	5307	21.968678701082	1008
7	5310	21.976452230069	1008
7	5313	21.988122830088	1008
7	5316	21.997151012438	1008
7	5319	22.004755620549	1008
7	5322	22.021853561068	1008
7	5325	22.024208673711	1008
7	5328	22.026461585897	1008
7	5331	22.033245868415	1008
7	5334	22.037887023956	1008
7	5337	22.038811210246	1008
7	5340	22.061142247732	1008
7	5343	22.07886227688	1008
7	5346	22.088283360791	1008
7	5349	22.134829054739	1008
7	5352	22.135733499211	1008
7	5355	22.153197081296	1008
7	5358	22.156914093298	1008
7	5361	22.162431861163	1008
7	5364	22.165402316143	1008
7	5367	22.184075237271	1008
7	5370	22.185944422467	1008
7	5373	22.207936652342	1008
7	5376	22.22093817956	1008
7	5379	22.221668221651	1008
7	5382	22.24165916114	1008
7	5385	22.253517620655	1008
7	5388	22.281761927782	1008
7	5391	22.298336286791	1008
7	5394	22.308218663283	1008
7	5397	22.329953433697	1008
7	5400	22.333863030369	1008
7	5403	22.343364065436	1008
7	5406	22.34753523472	1008
7	5409	22.388916359933	1008
7	5412	22.39199360458	1008
7	5415	22.392183965358	1008
7	5418	22.396915683189	1008
7	5421	22.405293826504	1008
7	5424	22.405639101676	1008
7	5427	22.415470384897	1008
7	5430	22.440355026533	1008
7	5433	22.454993496481	1008
7	5436	22.466698609122	1008
7	5439	22.50417097018	1008
7	5442	22.542292074273	1008
7	5445	22.563157511621	1008
7	5448	22.574387532741	1008
7	5451	22.582415183675	1008
7	5454	22.582576050527	1008
7	5457	22.593760882384	1008
7	5460	22.647975673816	1008
7	5463	22.668427321398	1008
7	5466	22.673424505275	1008
7	5469	22.675403666464	1008
7	5472	22.693796645575	1008
7	5475	22.71014466545	1008
7	5478	22.751096667159	1008
7	5481	22.776034841835	1008
7	5484	22.78576889576	1008
7	5487	22.787050357428	1008
7	5490	22.79497853251	1008
7	5493	22.799495731207	1008
7	5496	22.80811505862	1008
7	5499	22.812424363296	1008
7	5502	22.836174999788	1008
7	5505	22.858494972226	1008
7	5508	22.863043160997	1008
7	5511	22.874026096872	1008
7	5514	22.880775331984	1008
7	5517	22.909550319235	1008
7	5520	22.912039937436	1008
7	5523	22.92639708922	1008
7	5526	22.968626860198	1008
7	5529	22.97093933124	1008
7	5532	22.973646586639	1008
7	5535	22.987845784118	1008
7	5538	23.005969255759	1008
7	5541	23.014062316357	1008
7	5544	23.025351975573	1008
7	5547	23.028221458307	1008
7	5550	23.035990695898	1008
7	5553	23.037417069741	1008
7	5556	23.042070138622	1008
7	5559	23.046092114704	1008
7	5562	23.053149463004	1008
7	5565	23.085082265402	1008
7	5568	23.087482242151	1008
7	5571	23.093639946756	1008
7	5574	23.105112719322	1008
7	5577	23.140262413778	1008
7	5580	23.141977060696	1008
7	5583	23.171971451116	1008
7	5586	23.17298578343	1008
7	5589	23.180850022565	1008
7	5592	23.188124629353	1008
7	5595	23.190947264463	1008
7	5598	23.196069852444	1008
7	5601	23.203335120922	1008
7	5604	23.227383698113	1008
7	5607	23.2646139286	1008
7	5610	23.273394730697	1008
7	5613	23.297886595447	1008
7	5616	23.309129770505	1008
7	5619	23.314282328184	1008
7	5622	23.31687327842	1008
7	5625	23.323268799345	1008
7	5628	23.332147245162	1008
7	5631	23.332692780396	1008
7	5634	23.334584437683	1008
7	5637	23.345585460387	1008
7	5640	23.348644192065	1008
7	5643	23.370436304703	1008
7	5646	23.375187394391	1008
7	5649	23.376516350435	1008
7	5652	23.377563069499	1008
7	5655	23.410761970787	1008
7	5658	23.412269005844	1008
7	5661	23.414091581621	1008
7	5664	23.437915658945	1008
7	5667	23.44143665081	1008
7	5670	23.454594276707	1008
7	5673	23.474955531914	1008
7	5676	23.486168396958	1008
7	5679	23.524064176224	1008
7	5682	23.538872532652	1008
7	5685	23.540308094908	1008
7	5688	23.550116576826	1008
7	5691	23.56531469516	1008
7	5694	23.58474596267	1008
7	5697	23.585066049914	1008
7	5700	23.600293687337	1008
7	5703	23.621256094591	1008
7	5706	23.63774060416	1008
7	5709	23.646358471381	1008
7	5712	23.653708806862	1008
7	5715	23.663275404753	1008
7	5718	23.677910279126	1008
7	5721	23.708664328396	1008
7	5724	23.72018207534	1008
7	5727	23.746435412384	1008
7	5730	23.760933465326	1008
7	5733	23.761782866704	1008
7	5736	23.77012052581	1008
7	5739	23.774171170297	1008
7	5742	23.778199779278	1008
7	5745	23.783479108054	1008
7	5748	23.788014464874	1008
7	5751	23.79838482235	1008
7	5754	23.81219385581	1008
7	5757	23.815949844365	1008
7	5760	23.817617715509	1008
7	5763	23.818345022164	1008
7	5766	23.828634290984	1008
7	5769	23.831105749003	1008
7	5772	23.831217241239	1008
7	5775	23.862749228333	1008
7	5778	23.871993206935	1008
7	5781	23.873157262259	1008
7	5784	23.895369347603	1008
7	5787	23.944407817518	1008
7	5790	23.951551369228	1008
7	5793	23.952072393712	1008
7	5796	23.953572976369	1008
7	5799	23.959341456707	1008
7	5802	23.985349995075	1008
7	5805	23.987272564931	1008
7	5808	24.008119144917	1008
7	5811	24.008300219365	1008
7	5814	24.015636563927	1008
7	5817	24.028043852845	1008
7	5820	24.028791203079	1008
7	5823	24.040237953967	1008
7	5826	24.074913707859	1008
7	5829	24.077009662185	1008
7	5832	24.092704402795	1008
7	5835	24.103975857627	1008
7	5838	24.106432377528	1008
7	5841	24.106507050405	1008
7	5844	24.106618984187	1008
7	5847	24.115732797685	1008
7	5850	24.150062896167	1008
7	5853	24.1624668609	1008
7	5856	24.177500610146	1008
7	5859	24.185672043875	1008
7	5862	24.196136142236	1008
7	5865	24.197757288243	1008
7	5868	24.222886651488	1008
7	5871	24.240051744974	1008
7	5874	24.315884402726	1008
7	5877	24.320125530145	1008
7	5880	24.323215520774	1008
7	5883	24.324820114693	1008
7	5886	24.364781073425	1008
7	5889	24.382998986411	1008
7	5892	24.385181920482	1008
7	5895	24.394835866678	1008
7	5898	24.401244346869	1008
7	5901	24.403215571243	1008
7	5904	24.405337462481	1008
7	5907	24.445052918617	1008
7	5910	24.449418421381	1008
7	5913	24.483470716625	1008
7	5916	24.484414180002	1008
7	5919	24.491826272375	1008
7	5922	24.493492163822	1008
7	5925	24.493549750338	1008
7	5928	24.503232693898	1008
7	5931	24.504683719617	1008
7	5934	24.520046388775	1008
7	5937	24.534418952872	1008
7	5940	24.536746819018	1008
7	5943	24.570861334207	1008
7	5946	24.586181723325	1008
7	5949	24.590427077499	1008
7	5952	24.605249905415	1008
7	5955	24.621048003251	1008
7	5958	24.626074735795	1008
7	5961	24.63172608504	1008
7	5964	24.637064788995	1008
7	5967	24.648569483607	1008
7	5970	24.676249823646	1008
7	5973	24.67853203486	1008
7	5976	24.70350451125	1008
7	5979	24.703841023676	1008
7	5982	24.716798696186	1008
7	5985	24.723220912564	1008
7	5988	24.742022141763	1008
7	5991	24.757349187943	1008
7	5994	24.765198793736	1008
7	5997	24.777588106307	1008
7	6000	24.785948503153	1008
7	6003	24.805973566555	1008
7	6006	24.813730653109	1008
7	6009	24.822617443539	1008
7	6012	24.826077960636	1008
7	6015	24.837225701788	1008
7	6018	24.841555701479	1008
7	6021	24.851888358389	1008
7	6024	24.854119660555	1008
7	6027	24.85620431918	1008
7	6030	24.86267974851	1008
7	6033	24.869358404046	1008
7	6036	24.873103892563	1008
7	6039	24.874797083133	1008
7	6042	24.875277082861	1008
7	6045	24.875583750135	1008
7	6048	24.879385790376	1008
7	6051	24.886821282397	1008
7	6054	24.90236746809	1008
7	6057	24.910096820109	1008
7	6060	24.938224058764	1008
7	6063	24.938654318587	1008
7	6066	24.941045401369	1008
7	6069	24.946004607855	1008
7	6072	24.956343289598	1008
7	6075	24.979329643112	1008
7	6078	24.984502767111	1008
7	6081	24.988246278859	1008
7	6084	24.989012925034	1008
15	0	0	0
15	0	0	2
16	0	0	1
19	0	0	0
33	0	0	0
33	0	0	2
34	0	0	1
37	0	0	0
43	0	0	0
43	0	0	2
44	0	0	1
47	0	0	0
53	0	0	0
53	0	0	2
54	0	0	1
57	0	0	0
63	0	0	0
63	0	0	2
64	0	0	1
