version 2
run General-0-20171106-03:52:32-11084
attr configname General
attr datetime 20171106-03:52:32
attr experiment General
attr inifile omnetpp.ini
attr iterationvars ""
attr iterationvars2 $repetition=0
attr measurement ""
attr network recording.greedy1.GreedyTest
attr processid 11084
attr repetition 0
attr replication #0
attr resultdir results
attr runnumber 0
attr seedset 0
param **.n_hosts 10
param **.wlan[*].bitrate 2Mbps
param **.wlan[*].mac.address "\"auto\""
param **.wlan[*].mac.headerLength 20B
param **.wlan[*].radio.transmitter.detectionRange 0m
param **.wlan[*].radio.transmitter.headerBitLength 0b
param **.wlan[*].radio.transmitter.interferenceRange 0m
param **.wlan[*].radioType "\"IdealRadio\""
param **.wlan[*].typename "\"IdealWirelessNic\""
param **.wlan[0].radio.receiver.ignoreInterference true
param *.host*.networkLayer.arpType "\"GlobalARP\""
param *.host*.wlan[0].mac.fullDuplex false
param *.host*.wlan[0].mac.useAck false
param *.host*.wlan[0].radio.displayCommunicationRange true
param *.host*.wlan[0].typename "\"IdealWirelessNic\""
param *.host0.numUdpApps 1
param *.host0.udpApp[0].destAddresses "\"host5\""
param *.host0.udpApp[0].destPort 5000
param *.host0.udpApp[0].messageLength 1000B
param *.host0.udpApp[0].packetName "\"UDPData\""
param *.host0.udpApp[0].sendInterval exponential(12ms)
param *.host0.udpApp[0].typename "\"UDPBasicApp\""
param *.host0.wlan[*].radio.transmitter.communicationRange 200m
param *.host1.mobility.angle 0deg
param *.host1.mobility.speed 1mps
param *.host1.mobilityType "\"LinearMobility\""
param *.host1.wlan[*].radio.transmitter.communicationRange 200m
param *.host2.wlan[*].radio.transmitter.communicationRange 200m
param *.host3.wlan[*].radio.transmitter.communicationRange 200m
param *.host5.numUdpApps 1
param *.host5.udpApp[0].localPort 5000
param *.host5.udpApp[0].typename "\"UDPSink\""
param *.host5.wlan[*].radio.transmitter.communicationRange 200m
param *.integratedCanvasVisualizer.dataLinkVisualizer.packetNameFilter "\"UDPData*\""
param *.integratedCanvasVisualizer.mediumVisualizer.displaySignals true
param *.integratedCanvasVisualizer.mobilityVisualizer.displayMovementTrail true
param *.integratedCanvasVisualizer.physicalLinkVisualizer.packetNameFilter "\"UDPData*\""

vector 15  GreedyTest.host0.wlan[0].queue  queueLength:vector  ETV
attr interpolationmode  sample-hold
attr title  "queue length, vector"
vector 30  GreedyTest.host1.wlan[0].queue  queueLength:vector  ETV
attr interpolationmode  sample-hold
attr title  "queue length, vector"
vector 53  GreedyTest.host5.wlan[0].queue  queueLength:vector  ETV
attr interpolationmode  sample-hold
attr title  "queue length, vector"
vector 21  GreedyTest.host0.wlan[0].radio  radioMode:vector  ETV
attr interpolationmode  sample-hold
attr source  radioModeChanged
attr title  "Radio mode, vector"
vector 36  GreedyTest.host1.wlan[0].radio  radioMode:vector  ETV
attr interpolationmode  sample-hold
attr source  radioModeChanged
attr title  "Radio mode, vector"
vector 59  GreedyTest.host5.wlan[0].radio  radioMode:vector  ETV
attr interpolationmode  sample-hold
attr source  radioModeChanged
attr title  "Radio mode, vector"
vector 22  GreedyTest.host0.wlan[0].radio  receptionState:vector  ETV
attr interpolationmode  sample-hold
attr source  receptionStateChanged
attr title  "Radio reception state, vector"
vector 37  GreedyTest.host1.wlan[0].radio  receptionState:vector  ETV
attr interpolationmode  sample-hold
attr source  receptionStateChanged
attr title  "Radio reception state, vector"
vector 60  GreedyTest.host5.wlan[0].radio  receptionState:vector  ETV
attr interpolationmode  sample-hold
attr source  receptionStateChanged
attr title  "Radio reception state, vector"
vector 1  GreedyTest.host0.udpApp[0]  sentPk:vector(packetBytes)  ETV
attr interpolationmode  none
attr source  sentPk
attr title  "packets sent, vector(packetBytes)"
vector 4  GreedyTest.host0.udp  sentPk:vector(packetBytes)  ETV
attr interpolationmode  none
attr source  sentPk
attr title  "packets sent, vector(packetBytes)"
vector 12  GreedyTest.host0.wlan[0].queue  rcvdPk:vector(packetBytes)  ETV
attr interpolationmode  none
attr title  "received packets, vector(packetBytes)"
vector 14  GreedyTest.host0.wlan[0].queue  queueingTime:vector  ETV
attr interpolationmode  none
attr title  "queueing time, vector"
vector 18  GreedyTest.host0.wlan[0].mac  rcvdPkFromHL:vector(packetBytes)  ETV
attr interpolationmode  none
attr source  packetReceivedFromUpper
attr title  "packets received from higher layer, vector(packetBytes)"
vector 23  GreedyTest.host0.wlan[0].radio  transmissionState:vector  ETV
attr interpolationmode  sample-hold
attr source  transmissionStateChanged
attr title  "Radio transmission state, vector"
vector 17  GreedyTest.host0.wlan[0].mac  sentDownPk:vector(packetBytes)  ETV
attr interpolationmode  none
attr source  packetSentToLower
attr title  "packets sent to lower layer, vector(packetBytes)"
vector 34  GreedyTest.host1.wlan[0].mac  rcvdPkFromLL:vector(packetBytes)  ETV
attr interpolationmode  none
attr source  packetReceivedFromLower
attr title  "packets received from lower layer, vector(packetBytes)"
vector 35  GreedyTest.host1.wlan[0].mac  droppedPkNotForUs:vector(packetBytes)  ETV
attr interpolationmode  none
attr source  dropPkNotForUs
attr title  "packets dropped/not for us, vector(packetBytes)"
vector 50  GreedyTest.host5.wlan[0].queue  rcvdPk:vector(packetBytes)  ETV
attr interpolationmode  none
attr title  "received packets, vector(packetBytes)"
vector 52  GreedyTest.host5.wlan[0].queue  queueingTime:vector  ETV
attr interpolationmode  none
attr title  "queueing time, vector"
vector 56  GreedyTest.host5.wlan[0].mac  rcvdPkFromHL:vector(packetBytes)  ETV
attr interpolationmode  none
attr source  packetReceivedFromUpper
attr title  "packets received from higher layer, vector(packetBytes)"
vector 61  GreedyTest.host5.wlan[0].radio  transmissionState:vector  ETV
attr interpolationmode  sample-hold
attr source  transmissionStateChanged
attr title  "Radio transmission state, vector"
vector 55  GreedyTest.host5.wlan[0].mac  sentDownPk:vector(packetBytes)  ETV
attr interpolationmode  none
attr source  packetSentToLower
attr title  "packets sent to lower layer, vector(packetBytes)"
vector 31  GreedyTest.host1.wlan[0].mac  passedUpPk:vector(packetBytes)  ETV
attr interpolationmode  none
attr source  packetSentToUpper
attr title  "packets passed to higher layer, vector(packetBytes)"
vector 27  GreedyTest.host1.wlan[0].queue  rcvdPk:vector(packetBytes)  ETV
attr interpolationmode  none
attr title  "received packets, vector(packetBytes)"
vector 29  GreedyTest.host1.wlan[0].queue  queueingTime:vector  ETV
attr interpolationmode  none
attr title  "queueing time, vector"
vector 33  GreedyTest.host1.wlan[0].mac  rcvdPkFromHL:vector(packetBytes)  ETV
attr interpolationmode  none
attr source  packetReceivedFromUpper
attr title  "packets received from higher layer, vector(packetBytes)"
vector 38  GreedyTest.host1.wlan[0].radio  transmissionState:vector  ETV
attr interpolationmode  sample-hold
attr source  transmissionStateChanged
attr title  "Radio transmission state, vector"
vector 32  GreedyTest.host1.wlan[0].mac  sentDownPk:vector(packetBytes)  ETV
attr interpolationmode  none
attr source  packetSentToLower
attr title  "packets sent to lower layer, vector(packetBytes)"
vector 19  GreedyTest.host0.wlan[0].mac  rcvdPkFromLL:vector(packetBytes)  ETV
attr interpolationmode  none
attr source  packetReceivedFromLower
attr title  "packets received from lower layer, vector(packetBytes)"
vector 16  GreedyTest.host0.wlan[0].mac  passedUpPk:vector(packetBytes)  ETV
attr interpolationmode  none
attr source  packetSentToUpper
attr title  "packets passed to higher layer, vector(packetBytes)"
vector 13  GreedyTest.host0.wlan[0].queue  dropPk:vector(packetBytes)  ETV
attr interpolationmode  none
attr source  dropPkByQueue
attr title  "dropped packets, vector(packetBytes)"
vector 28  GreedyTest.host1.wlan[0].queue  dropPk:vector(packetBytes)  ETV
attr interpolationmode  none
attr source  dropPkByQueue
attr title  "dropped packets, vector(packetBytes)"
vector 57  GreedyTest.host5.wlan[0].mac  rcvdPkFromLL:vector(packetBytes)  ETV
attr interpolationmode  none
attr source  packetReceivedFromLower
attr title  "packets received from lower layer, vector(packetBytes)"
vector 58  GreedyTest.host5.wlan[0].mac  droppedPkNotForUs:vector(packetBytes)  ETV
attr interpolationmode  none
attr source  dropPkNotForUs
attr title  "packets dropped/not for us, vector(packetBytes)"
vector 54  GreedyTest.host5.wlan[0].mac  passedUpPk:vector(packetBytes)  ETV
attr interpolationmode  none
attr source  packetSentToUpper
attr title  "packets passed to higher layer, vector(packetBytes)"
vector 43  GreedyTest.host5.udp  rcvdPk:vector(packetBytes)  ETV
attr interpolationmode  none
attr source  rcvdPk
attr title  "packets received, vector(packetBytes)"
vector 44  GreedyTest.host5.udp  passedUpPk:vector(count)  ETV
attr interpolationmode  none
attr title  "packets passed up, vector(count)"
vector 39  GreedyTest.host5.udpApp[0]  rcvdPk:vector(packetBytes)  ETV
attr interpolationmode  none
attr source  rcvdPk
attr title  "packets received, vector(packetBytes)"
vector 40  GreedyTest.host5.udpApp[0]  endToEndDelay:vector  ETV
attr interpolationmode  none
attr source  messageAge(rcvdPk)
attr title  "end-to-end delay, vector"
attr unit  s
vector 41  GreedyTest.host5.udpApp[0]  rcvdPkSeqNo:vector  ETV
attr interpolationmode  none
attr source  appPkSeqNo(rcvdPk)
attr title  "received packet sequence number, vector"
1	15	0.022315250545	1000
1	19	0.02813678851	1000
1	22	0.03237469818	1000
1	25	0.033075314209	1000
1	28	0.036895587899	1000
1	31	0.044688944078	1000
1	34	0.064755478482	1000
1	37	0.072602069289	1000
1	40	0.078588533397	1000
1	44	0.100288964568	1000
1	47	0.105227900523	1000
1	50	0.117763250623	1000
1	53	0.12327422827	1000
1	56	0.161076267414	1000
1	59	0.162891037658	1000
1	62	0.187381744249	1000
1	65	0.195082254321	1000
1	69	0.21445027922	1000
1	72	0.223269852274	1000
1	75	0.236901119575	1000
1	78	0.252203852002	1000
1	81	0.262671706343	1000
1	84	0.271921722245	1000
1	87	0.288978098406	1000
1	90	0.290321452334	1000
1	93	0.298021788758	1000
1	97	0.300496228142	1000
1	100	0.316519710357	1000
1	103	0.319448292246	1000
1	106	0.321191628574	1000
1	109	0.325892878302	1000
1	112	0.327838516175	1000
1	115	0.33085581936	1000
1	118	0.336718503952	1000
1	121	0.364665464443	1000
1	124	0.371838417365	1000
1	127	0.383232352367	1000
1	131	0.411148565107	1000
1	134	0.412403299816	1000
1	137	0.454405864029	1000
1	140	0.467111873607	1000
1	143	0.469360986399	1000
1	146	0.474681834742	1000
1	149	0.491350347019	1000
1	153	0.502583085736	1000
1	156	0.507300436424	1000
1	159	0.507770634301	1000
1	162	0.519841086363	1000
1	165	0.558156446068	1000
1	168	0.570850363028	1000
1	171	0.582946593973	1000
1	175	0.647267798176	1000
1	178	0.65773078842	1000
1	181	0.664151564545	1000
1	184	0.671876936564	1000
1	187	0.683599305453	1000
1	190	0.688549320212	1000
1	194	0.70202733983	1000
1	197	0.70660600995	1000
1	200	0.724685633949	1000
1	203	0.760531912651	1000
1	206	0.773567145222	1000
1	209	0.773731120163	1000
1	212	0.785432343373	1000
1	215	0.798870115762	1000
1	219	0.84175317623	1000
1	222	0.86701703184	1000
1	225	0.87556803496	1000
1	228	0.876255958077	1000
1	231	0.883455320717	1000
1	234	0.883697602255	1000
1	237	0.890692142921	1000
1	241	0.937390984395	1000
1	244	0.942736017938	1000
1	247	0.95060377335	1000
1	250	0.964606255669	1000
1	253	0.990097102033	1000
1	257	1.02014404343	1000
1	260	1.023076788807	1000
1	263	1.033070911	1000
1	266	1.05710979727	1000
1	269	1.065644772517	1000
1	272	1.095471760801	1000
1	276	1.125955414897	1000
1	279	1.126996660685	1000
1	282	1.130900745671	1000
1	285	1.131013554679	1000
1	288	1.153181486491	1000
1	291	1.165682854341	1000
1	294	1.187778243999	1000
1	297	1.191468456684	1000
1	300	1.197554858163	1000
1	304	1.207212426961	1000
1	307	1.209375453985	1000
1	310	1.214916224738	1000
1	313	1.216816322813	1000
1	316	1.226933319199	1000
1	319	1.24153142304	1000
1	322	1.245615583899	1000
1	325	1.252430433741	1000
1	328	1.269362726653	1000
1	331	1.275414852332	1000
1	335	1.302579655242	1000
1	338	1.314803560002	1000
1	341	1.341461642784	1000
1	344	1.355136938346	1000
1	347	1.362293491078	1000
1	351	1.408409570077	1000
1	354	1.409891889845	1000
1	357	1.427373712548	1000
1	360	1.433742382507	1000
1	363	1.447245766709	1000
1	366	1.450694692422	1000
1	369	1.455203558531	1000
1	372	1.495576003968	1000
1	376	1.506230340893	1000
1	379	1.519164359503	1000
1	382	1.528306772759	1000
1	385	1.531451459659	1000
1	388	1.537479189238	1000
1	391	1.549052632024	1000
1	394	1.556781888524	1000
1	397	1.564403421112	1000
1	400	1.579511943319	1000
1	403	1.58358792011	1000
1	406	1.589391548349	1000
1	410	1.605987298827	1000
1	413	1.631276670086	1000
1	416	1.632579235268	1000
1	419	1.633742308323	1000
1	422	1.638986644488	1000
1	425	1.648617268317	1000
1	428	1.649027709337	1000
1	431	1.690698135088	1000
1	434	1.695343696194	1000
1	437	1.698344674134	1000
1	441	1.700172197637	1000
1	444	1.701400045015	1000
1	447	1.751053762141	1000
1	450	1.7546725531	1000
1	453	1.763913475415	1000
1	456	1.771042357395	1000
1	459	1.772300939422	1000
1	462	1.777513087293	1000
1	465	1.785114638706	1000
1	469	1.807191432127	1000
1	472	1.835393559604	1000
1	475	1.835852954559	1000
1	478	1.844371969686	1000
1	481	1.846562432909	1000
1	484	1.864680314376	1000
1	487	1.888704152322	1000
1	490	1.89506418686	1000
1	493	1.896873678982	1000
1	496	1.897279120409	1000
1	500	1.945877282475	1000
1	503	1.951484553272	1000
1	506	1.95802283881	1000
1	509	1.958645789436	1000
1	512	1.964104731574	1000
1	515	1.964305944766	1000
1	518	1.967453896476	1000
1	521	1.98482742546	1000
1	525	2.019442766485	1000
1	528	2.036078262709	1000
1	531	2.041053613221	1000
1	534	2.049123139423	1000
1	537	2.054090886495	1000
1	540	2.056464840585	1000
1	543	2.058715067999	1000
1	546	2.066186236127	1000
1	549	2.091098608852	1000
1	553	2.125713140313	1000
1	556	2.136958804926	1000
1	559	2.147854373254	1000
1	562	2.166224347969	1000
1	565	2.174542745203	1000
1	568	2.175162940073	1000
1	571	2.189574590952	1000
1	575	2.248124185608	1000
1	578	2.251855799268	1000
1	581	2.265494957211	1000
1	584	2.289461020821	1000
1	588	2.306137145586	1000
1	591	2.346192357592	1000
1	594	2.355888118233	1000
1	597	2.358753152707	1000
1	600	2.361772336064	1000
1	603	2.36473464729	1000
1	606	2.374850392595	1000
1	609	2.382070540433	1000
1	613	2.424244284599	1000
1	616	2.437937939433	1000
1	619	2.439007790913	1000
1	622	2.439704659258	1000
1	625	2.447734023942	1000
1	628	2.473278065076	1000
1	632	2.518238400442	1000
1	635	2.529775675301	1000
1	638	2.539159383952	1000
1	641	2.562299705595	1000
1	644	2.578642886287	1000
1	647	2.58645765507	1000
1	651	2.600021921621	1000
1	654	2.611230645612	1000
1	657	2.626281084853	1000
1	660	2.633888245086	1000
1	663	2.641194240051	1000
1	666	2.669621258101	1000
1	669	2.671392410496	1000
1	672	2.674516627435	1000
1	676	2.700119386885	1000
1	679	2.728293512022	1000
1	682	2.740747712928	1000
1	685	2.745458589266	1000
1	688	2.754259001344	1000
1	691	2.754259665567	1000
1	694	2.758744825093	1000
1	697	2.765394875042	1000
1	700	2.791384039212	1000
1	704	2.80505273102	1000
1	707	2.812361266373	1000
1	710	2.82028730333	1000
1	713	2.838943258584	1000
1	716	2.842070940137	1000
1	719	2.867543899984	1000
1	722	2.872061052202	1000
1	726	2.909946198699	1000
1	729	2.917604461966	1000
1	732	2.932524671301	1000
1	735	2.934527166996	1000
1	738	2.950258835414	1000
1	741	2.962729303053	1000
1	744	2.96563233879	1000
1	747	2.968108634713	1000
1	750	2.987885548791	1000
1	754	3.004381708237	1000
1	757	3.017863234232	1000
1	760	3.021753623594	1000
1	763	3.024060760884	1000
1	766	3.038688753026	1000
1	769	3.046153196055	1000
1	772	3.06817635689	1000
1	775	3.070927288792	1000
1	778	3.073090580387	1000
1	781	3.074690667866	1000
1	784	3.090055760114	1000
1	787	3.090426875613	1000
1	791	3.106918991786	1000
1	794	3.108085003926	1000
1	797	3.111027381038	1000
1	800	3.127627178632	1000
1	803	3.143414693732	1000
1	806	3.143974946656	1000
1	809	3.146790816847	1000
1	812	3.150848673425	1000
1	815	3.164419695175	1000
1	818	3.165201049552	1000
1	821	3.174934741819	1000
1	824	3.175046138112	1000
1	827	3.196526013366	1000
1	831	3.246397666513	1000
1	834	3.260985952193	1000
1	837	3.263391258534	1000
1	840	3.272010216295	1000
1	843	3.282433005073	1000
1	847	3.301021145223	1000
1	850	3.312212487486	1000
1	853	3.315169477353	1000
1	856	3.322456828816	1000
1	859	3.347787494109	1000
1	862	3.355921118134	1000
1	865	3.371007962081	1000
1	868	3.378998071921	1000
1	871	3.393792637477	1000
1	875	3.402065851931	1000
1	878	3.424403031647	1000
1	881	3.426996186246	1000
1	884	3.444807096038	1000
1	887	3.488722984007	1000
1	891	3.512515970862	1000
1	894	3.53070879802	1000
1	897	3.581131111135	1000
1	900	3.597939219499	1000
1	903	3.597987895355	1000
1	907	3.601755870132	1000
1	910	3.608097476872	1000
1	913	3.614805568912	1000
1	916	3.619048727815	1000
1	919	3.625201303527	1000
1	922	3.626744266374	1000
1	925	3.674115865585	1000
1	928	3.680368811438	1000
1	931	3.690474447072	1000
1	934	3.695526366649	1000
1	938	3.714189898973	1000
1	941	3.720549437924	1000
1	944	3.725891229997	1000
1	947	3.732011120003	1000
1	950	3.736322646865	1000
1	953	3.754234232835	1000
1	956	3.785513094463	1000
1	959	3.790235123396	1000
1	963	3.826893440744	1000
1	966	3.827061999839	1000
1	969	3.83621108405	1000
1	972	3.840569990677	1000
1	975	3.866302616251	1000
1	978	3.869764768775	1000
1	981	3.883341313986	1000
1	985	3.903296903354	1000
1	988	3.910087637854	1000
1	991	3.926826066949	1000
1	994	3.948061504828	1000
1	997	3.953779247819	1000
1	1000	3.954997656826	1000
1	1003	3.958548479305	1000
1	1006	3.969304429765	1000
1	1009	3.977070526214	1000
1	1012	3.985102160678	1000
1	1015	3.992463429753	1000
1	1019	4.001386428054	1000
1	1022	4.008387513306	1000
1	1025	4.031365620398	1000
1	1028	4.038183666203	1000
1	1031	4.059228241943	1000
1	1034	4.06777233873	1000
1	1037	4.068856385659	1000
1	1040	4.081803508561	1000
1	1043	4.084580560224	1000
1	1047	4.107129981435	1000
1	1050	4.120854268882	1000
1	1053	4.123211811513	1000
1	1056	4.124080840834	1000
1	1059	4.124197665746	1000
1	1062	4.150910673619	1000
1	1065	4.152629709876	1000
1	1068	4.170755249091	1000
1	1072	4.201864632396	1000
1	1075	4.216935354208	1000
1	1078	4.225034765892	1000
1	1081	4.23264195141	1000
1	1084	4.258359147815	1000
1	1087	4.266401930334	1000
1	1090	4.272826782547	1000
1	1093	4.275122335098	1000
1	1096	4.282861236992	1000
1	1100	4.301231418019	1000
1	1103	4.310986198353	1000
1	1106	4.313076540277	1000
1	1109	4.314939967303	1000
1	1112	4.327519436562	1000
1	1115	4.336817545116	1000
1	1118	4.341546235979	1000
1	1121	4.343454380181	1000
1	1124	4.34554476478	1000
1	1127	4.347207806637	1000
1	1130	4.35758706395	1000
1	1133	4.358748633618	1000
1	1136	4.387716830784	1000
1	1139	4.388756234717	1000
1	1143	4.408092218706	1000
1	1146	4.433251853988	1000
1	1149	4.43442928826	1000
1	1152	4.441097195218	1000
1	1155	4.448788877761	1000
1	1158	4.459204517545	1000
1	1161	4.474320211592	1000
1	1164	4.474649516797	1000
1	1167	4.490423781974	1000
1	1171	4.507902504513	1000
1	1174	4.50802027775	1000
1	1177	4.512443273025	1000
1	1180	4.515624390242	1000
1	1183	4.524024697875	1000
1	1186	4.560901600548	1000
1	1189	4.570693823316	1000
1	1192	4.571924446032	1000
1	1195	4.583588576725	1000
1	1199	4.607443850183	1000
1	1202	4.609502313711	1000
1	1205	4.668104301595	1000
1	1208	4.669170290187	1000
1	1211	4.670360948505	1000
1	1214	4.682409562592	1000
1	1218	4.71819091848	1000
1	1221	4.751318171948	1000
1	1224	4.758435151116	1000
1	1227	4.774045200246	1000
1	1230	4.790313822412	1000
1	1233	4.794714284258	1000
1	1236	4.796245167144	1000
1	1240	4.803286392824	1000
1	1243	4.80925290426	1000
1	1246	4.818360481551	1000
1	1249	4.840760167193	1000
1	1252	4.849981718122	1000
1	1255	4.863665064645	1000
1	1258	4.874939088475	1000
1	1261	4.876183138515	1000
1	1264	4.877341633863	1000
1	1267	4.878032748865	1000
1	1270	4.879118838507	1000
1	1273	4.882367531196	1000
1	1277	4.904322037066	1000
1	1280	4.913189077305	1000
1	1283	4.921824816077	1000
1	1286	4.934416922068	1000
1	1289	4.943855631171	1000
1	1292	4.944251678992	1000
1	1295	4.954666021431	1000
1	1298	4.972359088128	1000
1	1301	4.978022705181	1000
1	1304	4.986126975623	1000
1	1308	5.034097737344	1000
1	1311	5.037464648458	1000
1	1314	5.043091704385	1000
1	1317	5.043652523206	1000
1	1320	5.048106463856	1000
1	1323	5.069477679955	1000
1	1326	5.08921988108	1000
1	1330	5.101480501249	1000
1	1333	5.106988836379	1000
1	1336	5.111489579696	1000
1	1339	5.130913512493	1000
1	1342	5.131790132379	1000
1	1345	5.145598083494	1000
1	1348	5.151348635828	1000
1	1351	5.163407835537	1000
1	1354	5.194795526726	1000
1	1358	5.217880389574	1000
1	1361	5.226142556231	1000
1	1364	5.232842477702	1000
1	1367	5.253591913354	1000
1	1370	5.269675224898	1000
1	1373	5.276787113913	1000
1	1377	5.318434854879	1000
1	1380	5.323849720461	1000
1	1383	5.329930399028	1000
1	1386	5.346034635922	1000
1	1389	5.353188698619	1000
1	1392	5.386418432413	1000
1	1395	5.389986914748	1000
1	1398	5.39575745344	1000
1	1402	5.410091332762	1000
1	1405	5.437375818762	1000
1	1408	5.4389242808	1000
1	1411	5.442241953399	1000
1	1414	5.44535130047	1000
1	1417	5.453419895294	1000
1	1420	5.480074465492	1000
1	1423	5.485394478244	1000
1	1426	5.491232707921	1000
1	1430	5.521060280933	1000
1	1433	5.522510257688	1000
1	1436	5.534477844778	1000
1	1439	5.536187880126	1000
1	1442	5.541813428426	1000
1	1445	5.546519363901	1000
1	1448	5.560196908781	1000
1	1451	5.579245195537	1000
1	1454	5.587657741649	1000
1	1457	5.591873597028	1000
1	1461	5.617928307604	1000
1	1464	5.623132285868	1000
1	1467	5.639223106563	1000
1	1470	5.648949024329	1000
1	1473	5.651649534255	1000
1	1476	5.661192200671	1000
1	1479	5.669990904735	1000
1	1482	5.675137846764	1000
1	1485	5.675436983913	1000
1	1488	5.677370694859	1000
1	1491	5.679067412212	1000
1	1494	5.693836038424	1000
1	1498	5.708652196937	1000
1	1501	5.720005417832	1000
1	1504	5.733378916613	1000
1	1507	5.740498883432	1000
1	1510	5.754790660873	1000
1	1513	5.760494736909	1000
1	1516	5.761759490468	1000
1	1520	5.800463283473	1000
1	1523	5.801365585183	1000
1	1526	5.801599456698	1000
1	1529	5.848290377783	1000
1	1532	5.85021913827	1000
1	1535	5.853811374305	1000
1	1538	5.856724319553	1000
1	1541	5.867131823779	1000
1	1545	5.91176472351	1000
1	1548	5.915590816091	1000
1	1551	5.957699578703	1000
1	1554	5.958009515236	1000
1	1557	5.984285275811	1000
1	1560	5.999082340538	1000
1	1564	6.002987341144	1000
1	1567	6.030017255585	1000
1	1570	6.030339823019	1000
1	1573	6.042130163132	1000
1	1576	6.046927706402	1000
1	1579	6.087906805231	1000
1	1582	6.090122195706	1000
1	1586	6.117932508457	1000
1	1589	6.122737086835	1000
1	1592	6.14914103868	1000
1	1595	6.157761428703	1000
1	1598	6.166337038952	1000
1	1601	6.172206339879	1000
1	1604	6.181268881692	1000
1	1608	6.216010293096	1000
1	1611	6.242813971309	1000
1	1614	6.256379457689	1000
1	1617	6.268606895862	1000
1	1620	6.278145369895	1000
1	1623	6.281966086088	1000
1	1626	6.283891895376	1000
1	1630	6.307172473895	1000
1	1633	6.319268636381	1000
1	1636	6.32354262576	1000
1	1639	6.330941742822	1000
1	1642	6.331239741315	1000
1	1645	6.341038853581	1000
1	1648	6.346415909202	1000
1	1651	6.354798881275	1000
1	1654	6.356800430372	1000
1	1657	6.363451652053	1000
1	1660	6.391847135219	1000
1	1663	6.391949711443	1000
1	1667	6.433582437508	1000
1	1670	6.44767127915	1000
1	1673	6.448927826431	1000
1	1676	6.45303392273	1000
1	1679	6.462328124185	1000
1	1682	6.477782807054	1000
1	1685	6.483692103571	1000
1	1688	6.486783121967	1000
1	1691	6.494063670878	1000
1	1695	6.537005691588	1000
1	1698	6.558541768956	1000
1	1701	6.588093500189	1000
1	1705	6.601299122555	1000
1	1708	6.608271226421	1000
1	1711	6.622136923166	1000
1	1714	6.634686826679	1000
1	1717	6.635041208413	1000
1	1720	6.665279872739	1000
1	1723	6.674662485816	1000
1	1727	6.731379228178	1000
1	1730	6.737175864469	1000
1	1733	6.756896103291	1000
1	1736	6.764312731817	1000
1	1739	6.785354109236	1000
1	1742	6.794649474072	1000
1	1746	6.820842040743	1000
1	1749	6.846295894225	1000
1	1752	6.851071274961	1000
1	1755	6.857290009138	1000
1	1758	6.866730206524	1000
1	1761	6.878394794146	1000
1	1764	6.884118767157	1000
1	1767	6.893492792637	1000
1	1770	6.89503933639	1000
1	1774	6.908738722672	1000
1	1777	6.912800016266	1000
1	1780	6.913327143076	1000
1	1783	6.914808056734	1000
1	1786	6.916158416091	1000
1	1789	6.920724547474	1000
1	1792	6.924121416704	1000
1	1795	6.934049327787	1000
1	1798	6.962468160423	1000
1	1801	6.972881222138	1000
1	1804	6.983814971835	1000
1	1807	6.987077361898	1000
1	1810	6.997512746228	1000
1	1813	6.999404810862	1000
1	1817	7.004311821213	1000
1	1820	7.016098679426	1000
1	1823	7.021478631105	1000
1	1826	7.050507247835	1000
1	1829	7.075800612136	1000
1	1832	7.082633845502	1000
1	1835	7.091381926159	1000
1	1838	7.099106623829	1000
1	1842	7.101552048416	1000
1	1845	7.108398120273	1000
1	1848	7.110890559708	1000
1	1851	7.125962506893	1000
1	1854	7.13484553319	1000
1	1857	7.139483463375	1000
1	1860	7.139520715657	1000
1	1863	7.150435564115	1000
1	1866	7.163001871181	1000
1	1869	7.163064308775	1000
1	1873	7.20523205465	1000
1	1876	7.218315001688	1000
1	1879	7.222478148286	1000
1	1882	7.225161336986	1000
1	1885	7.25635741593	1000
1	1888	7.260797166087	1000
1	1891	7.266991607546	1000
1	1894	7.279022356446	1000
1	1898	7.305581083224	1000
1	1901	7.312381506742	1000
1	1904	7.343991083493	1000
1	1907	7.354751313532	1000
1	1910	7.361534376908	1000
1	1913	7.372315205305	1000
1	1916	7.377568078778	1000
1	1919	7.390409068654	1000
1	1923	7.403086360584	1000
1	1926	7.42377906321	1000
1	1929	7.42996443381	1000
1	1932	7.430423899383	1000
1	1935	7.480529222634	1000
1	1938	7.487662814834	1000
1	1942	7.520959870293	1000
1	1945	7.534338272542	1000
1	1948	7.538060626021	1000
1	1951	7.548023753782	1000
1	1954	7.585763724414	1000
1	1957	7.587209223627	1000
1	1960	7.591022455724	1000
1	1963	7.592049905253	1000
1	1967	7.609441767687	1000
1	1970	7.609704896255	1000
1	1973	7.611476478854	1000
1	1976	7.615099938896	1000
1	1979	7.639682936775	1000
1	1982	7.64205571799	1000
1	1985	7.648870370307	1000
1	1988	7.653588977751	1000
1	1991	7.664096643328	1000
1	1994	7.697171200258	1000
1	1998	7.731089487905	1000
1	2001	7.731736731382	1000
1	2004	7.74261908867	1000
1	2007	7.769304482459	1000
1	2010	7.78752491224	1000
1	2013	7.790376902693	1000
1	2017	7.80775465618	1000
1	2020	7.810269430009	1000
1	2023	7.837752516648	1000
1	2026	7.837860173296	1000
1	2029	7.838994974134	1000
1	2032	7.85058020373	1000
1	2035	7.856363954245	1000
1	2038	7.857582539492	1000
1	2042	7.907925762933	1000
1	2045	7.935153391972	1000
1	2048	7.938948237242	1000
1	2051	7.94663922232	1000
1	2054	7.954480661437	1000
1	2057	7.963001505585	1000
1	2061	8.004031143617	1000
1	2064	8.005294916647	1000
1	2067	8.005780412115	1000
1	2070	8.013713369725	1000
1	2073	8.021068976949	1000
1	2076	8.024287654068	1000
1	2079	8.02501574567	1000
1	2082	8.026602284868	1000
1	2085	8.049920691544	1000
1	2088	8.056043948317	1000
1	2091	8.061807450083	1000
1	2094	8.062074073907	1000
1	2097	8.067709370293	1000
1	2100	8.080711948553	1000
1	2103	8.09249336742	1000
1	2107	8.121933037518	1000
1	2110	8.135302414356	1000
1	2113	8.140002628835	1000
1	2116	8.144564057211	1000
1	2119	8.166063909242	1000
1	2122	8.18400668266	1000
1	2125	8.187967962989	1000
1	2129	8.202986070472	1000
1	2132	8.21288093115	1000
1	2135	8.219004040954	1000
1	2138	8.228086292761	1000
1	2141	8.229155324251	1000
1	2144	8.242303122694	1000
1	2147	8.24266411624	1000
1	2150	8.269073918732	1000
1	2153	8.282826855153	1000
1	2157	8.309458401414	1000
1	2160	8.309472901037	1000
1	2163	8.342690101729	1000
1	2166	8.380819269187	1000
1	2169	8.399913696347	1000
1	2173	8.457964745736	1000
1	2176	8.463230995861	1000
1	2179	8.485864377143	1000
1	2183	8.503535731494	1000
1	2186	8.518833948925	1000
1	2189	8.53087624158	1000
1	2192	8.53528345959	1000
1	2195	8.54453103232	1000
1	2198	8.548383004215	1000
1	2201	8.548487738971	1000
1	2204	8.548790872433	1000
1	2207	8.550660702666	1000
1	2210	8.559313331519	1000
1	2213	8.562335828935	1000
1	2216	8.567870538266	1000
1	2219	8.56855074484	1000
1	2222	8.597606784597	1000
1	2226	8.62355564391	1000
1	2229	8.650864283707	1000
1	2232	8.655709318592	1000
1	2235	8.670685537367	1000
1	2238	8.677366787104	1000
1	2241	8.681675935298	1000
1	2244	8.682552085824	1000
1	2247	8.689127035076	1000
1	2250	8.695025579381	1000
1	2253	8.697123443381	1000
1	2257	8.702296665308	1000
1	2260	8.703502731593	1000
1	2263	8.728087587516	1000
1	2266	8.741304340456	1000
1	2269	8.743873326792	1000
1	2272	8.773899222582	1000
1	2275	8.78430011543	1000
1	2278	8.791603547679	1000
1	2282	8.803942011498	1000
1	2285	8.807458773471	1000
1	2288	8.817069677665	1000
1	2291	8.818767102925	1000
1	2294	8.821452568191	1000
1	2297	8.830112473163	1000
1	2300	8.831343424282	1000
1	2303	8.854258084504	1000
1	2306	8.860299197889	1000
1	2309	8.863483637382	1000
1	2312	8.874049858642	1000
1	2315	8.890534489818	1000
1	2319	8.90180271306	1000
1	2322	8.912184501767	1000
1	2325	8.914421897377	1000
1	2328	8.928336088969	1000
1	2331	8.973500258491	1000
1	2334	8.984756355878	1000
1	2337	8.989533087938	1000
1	2341	9.009008968143	1000
1	2344	9.030730300281	1000
1	2347	9.037169765277	1000
1	2350	9.043615970122	1000
1	2353	9.076718705997	1000
1	2356	9.092088261874	1000
1	2359	9.092489718984	1000
1	2362	9.099150099688	1000
1	2366	9.10033329369	1000
1	2369	9.146436289332	1000
1	2372	9.156710283221	1000
1	2375	9.169093331656	1000
1	2378	9.174532745306	1000
1	2381	9.187753888314	1000
1	2384	9.197933090032	1000
1	2388	9.215816079072	1000
1	2391	9.243459361592	1000
1	2394	9.249675710277	1000
1	2397	9.276760755977	1000
1	2400	9.277568319583	1000
1	2403	9.291448711059	1000
1	2406	9.294601775978	1000
1	2410	9.30389064049	1000
1	2413	9.321686152863	1000
1	2416	9.338158840933	1000
1	2419	9.35349587646	1000
1	2422	9.361409910061	1000
1	2425	9.363998308156	1000
1	2428	9.366759817374	1000
1	2431	9.37596052196	1000
1	2434	9.382871597634	1000
1	2438	9.42713326134	1000
1	2441	9.431427493408	1000
1	2444	9.432414644194	1000
1	2447	9.447988683024	1000
1	2450	9.492460570672	1000
1	2454	9.510744614036	1000
1	2457	9.514149615266	1000
1	2460	9.514596568374	1000
1	2463	9.520865719294	1000
1	2466	9.546086042303	1000
1	2469	9.552873517355	1000
1	2472	9.556883862335	1000
1	2475	9.589740141878	1000
1	2479	9.607495043574	1000
1	2482	9.618824738599	1000
1	2485	9.618856906499	1000
1	2488	9.651028847576	1000
1	2491	9.664473156569	1000
1	2494	9.667523612522	1000
1	2497	9.667824387573	1000
1	2500	9.667914343706	1000
1	2503	9.699388249969	1000
1	2507	9.713565114752	1000
1	2510	9.728220476875	1000
1	2513	9.739098492202	1000
1	2516	9.748344940051	1000
1	2519	9.75564131956	1000
1	2522	9.76664260602	1000
1	2525	9.779381245816	1000
1	2528	9.784983711946	1000
1	2531	9.798223615578	1000
1	2535	9.805548818094	1000
1	2538	9.806615668793	1000
1	2541	9.809801609305	1000
1	2544	9.810820093991	1000
1	2547	9.815483696786	1000
1	2550	9.826823912673	1000
1	2553	9.83232320743	1000
1	2556	9.847868687397	1000
1	2559	9.861469346521	1000
1	2562	9.863344858231	1000
1	2565	9.865552545555	1000
1	2568	9.866351807202	1000
1	2571	9.870035535793	1000
1	2574	9.875174632139	1000
1	2577	9.876283282364	1000
1	2580	9.887345833463	1000
1	2584	9.902382770591	1000
1	2587	9.904435392419	1000
1	2590	9.909460504646	1000
1	2593	9.925050896635	1000
1	2596	9.938114290712	1000
1	2599	9.961241944679	1000
1	2602	9.970947426194	1000
1	2605	9.971260553774	1000
1	2608	9.971968902408	1000
1	2611	9.972970278619	1000
1	2614	9.981706553215	1000
1	2617	9.998589719758	1000
1	2620	9.998983386415	1000
1	2739	10.00630423591	1000
1	2785	10.026705723061	1000
1	2798	10.034395635919	1000
1	2855	10.060069366195	1000
1	2894	10.075928447469	1000
1	2906	10.082254472945	1000
1	2926	10.087865961872	1000
1	2947	10.096565043108	1000
1	3014	10.122950226584	1000
1	3045	10.138990159049	1000
1	3048	10.139052154482	1000
1	3086	10.15326838829	1000
1	3154	10.183503470197	1000
1	3185	10.198376836102	1000
1	3197	10.20071450926	1000
1	3210	10.208643090381	1000
1	3222	10.210457375498	1000
1	3234	10.215793996957	1000
1	3308	10.248991758974	1000
1	3374	10.279806831611	1000
1	3386	10.28379625467	1000
1	3399	10.288775733663	1000
1	3420	10.299777610111	1000
1	3505	10.33940381754	1000
1	3517	10.341323044786	1000
1	3528	10.344886409491	1000
1	3577	10.369701957273	1000
1	3598	10.377826697821	1000
1	3664	10.405333693331	1000
1	3668	10.407796127151	1000
1	3689	10.416924726373	1000
1	3701	10.421663829878	1000
1	3713	10.42623092067	1000
1	3734	10.433337018318	1000
1	3752	10.440147409324	1000
1	3756	10.444397792693	1000
1	3761	10.49029262857	1000
1	3764	10.49085789862	1000
1	3767	10.493382901459	1000
1	3771	10.502212421383	1000
1	3774	10.507871570028	1000
1	3777	10.51119801129	1000
1	3780	10.52504317645	1000
1	3783	10.53831941323	1000
1	3786	10.578124221763	1000
1	3790	10.603428231546	1000
1	3793	10.675023059943	1000
1	3796	10.680432777671	1000
1	3799	10.680988251742	1000
1	3802	10.685710040506	1000
1	3805	10.693953988137	1000
1	3808	10.696221730338	1000
1	3811	10.697288702686	1000
1	3827	10.704522433582	1000
1	3831	10.736899430097	1000
1	3834	10.754184129357	1000
1	3837	10.758662766097	1000
1	3840	10.784999970682	1000
1	3843	10.799339108282	1000
1	3847	10.806807884574	1000
1	3850	10.810496291847	1000
1	3853	10.820779369065	1000
1	3856	10.823380849374	1000
1	3872	10.839602714407	1000
1	3885	10.844488840573	1000
1	3900	10.85998039304	1000
1	3914	10.887595433432	1000
1	3927	10.89584993069	1000
1	3935	10.897067028091	1000
1	3957	10.920961615777	1000
1	3970	10.926466439873	1000
1	4011	10.980314020808	1000
1	4024	10.984846585274	1000
1	4038	10.994692196089	1000
1	4053	11.002654456308	1000
1	4061	11.00397328961	1000
1	4080	11.015409930724	1000
1	4089	11.018767012353	1000
1	4122	11.05864975787	1000
1	4131	11.061911640098	1000
1	4150	11.074319709971	1000
1	4165	11.089920262081	1000
1	4178	11.097666019333	1000
1	4187	11.101141647708	1000
1	4215	11.13345284612	1000
1	4228	11.138263360684	1000
1	4241	11.146894921951	1000
1	4250	11.149990264702	1000
1	4254	11.150846308779	1000
1	4283	11.165524585666	1000
1	4298	11.173932638172	1000
1	4323	11.178845909924	1000
1	4340	11.197833997727	1000
1	4349	11.200779631513	1000
1	4382	11.244492147769	1000
1	4390	11.248616252389	1000
1	4403	11.250994668236	1000
1	4423	11.253782332606	1000
1	4442	11.266904565132	1000
1	4470	11.289962012364	1000
1	4484	11.298175039663	1000
1	4506	11.309877788172	1000
1	4514	11.311296382512	1000
1	4534	11.318667745855	1000
1	4547	11.323234102376	1000
1	4562	11.331342530165	1000
1	4570	11.332202836782	1000
1	4592	11.357563616193	1000
1	4600	11.359893907938	1000
1	4633	11.39348818116	1000
1	4674	11.496220400272	1000
1	4700	11.503773895088	1000
1	4717	11.507887971798	1000
1	4729	11.512239831954	1000
1	4757	11.522970231837	1000
1	4765	11.523086997908	1000
1	4769	11.524846147419	1000
1	4798	11.539783292365	1000
1	4813	11.547919118626	1000
1	4834	11.55982994804	1000
1	4848	11.566677421136	1000
1	4870	11.584377640911	1000
1	4878	11.584524590977	1000
1	4891	11.589202577935	1000
1	4913	11.611913673884	1000
1	4930	11.615056468971	1000
1	4941	11.616564951636	1000
1	4945	11.617063697062	1000
1	4958	11.624904058669	1000
1	4995	11.638470539031	1000
1	5003	11.638591915138	1000
1	5025	11.646343098581	1000
1	5052	11.661146817912	1000
1	5066	11.671389197956	1000
1	5080	11.680198863752	1000
1	5088	11.683561401489	1000
1	5101	11.685154029847	1000
1	5135	11.695630498468	1000
1	5143	11.696994874809	1000
1	5158	11.701063328741	1000
1	5162	11.701458023979	1000
1	5192	11.715848132332	1000
1	5201	11.719199587156	1000
1	5220	11.729858996382	1000
1	5229	11.733086642722	1000
1	5261	11.744713447557	1000
1	5315	11.780316923482	1000
1	5376	11.812414036208	1000
1	5390	11.825745716364	1000
1	5399	11.828205656053	1000
1	5529	11.89392148227	1000
1	5543	11.899096882256	1000
1	5551	11.899943150631	1000
1	5592	11.934500076007	1000
1	5600	11.937971667945	1000
1	5619	11.945150610529	1000
1	5661	11.975639531775	1000
1	5669	11.977273410655	1000
1	5687	11.986227150619	1000
1	5701	11.990797544471	1000
1	5715	11.995533942062	1000
1	5723	11.995828807811	1000
1	5745	12.002576676911	1000
1	5766	12.015247607703	1000
1	5780	12.022987317755	1000
1	5788	12.023809325936	1000
1	5792	12.023976870755	1000
1	5844	12.053095177464	1000
1	5864	12.059503457553	1000
1	5879	12.07306634762	1000
1	5897	12.076246013249	1000
1	5908	12.08070972535	1000
1	5942	12.099507843012	1000
1	5963	12.109306578985	1000
1	6002	12.123953825447	1000
1	6030	12.137831834641	1000
1	6045	12.146800858747	1000
1	6060	12.156384404712	1000
1	6068	12.157427986844	1000
1	6072	12.15805709907	1000
1	6148	12.198464438816	1000
1	6157	12.200443319887	1000
1	6161	12.200451293122	1000
1	6245	12.234550504592	1000
1	6253	12.237011908298	1000
1	6288	12.264162037943	1000
1	6296	12.265788131875	1000
1	6309	12.271877869843	1000
1	6382	12.316189954498	1000
1	6396	12.325014541407	1000
1	6410	12.331387951636	1000
1	6418	12.333211193939	1000
1	6477	12.374269634893	1000
1	6498	12.385806880164	1000
1	6506	12.386333126624	1000
1	6527	12.400815074879	1000
1	6541	12.409737680727	1000
1	6556	12.428287355234	1000
1	6582	12.445160477439	1000
1	6590	12.446424839348	1000
1	6603	12.451015749837	1000
1	6607	12.451222242155	1000
1	6659	12.492177201307	1000
1	6701	12.50182451212	1000
1	6709	12.50603538018	1000
1	6781	12.537825683266	1000
1	6823	12.55895904579	1000
1	6857	12.576790321992	1000
1	6873	12.602621555828	1000
1	6881	12.603441856087	1000
1	6894	12.611115172008	1000
1	6913	12.619078944111	1000
1	6922	12.621887628666	1000
1	6936	12.627534402381	1000
1	6955	12.634521706355	1000
1	6977	12.643381007902	1000
1	6985	12.643810524603	1000
1	7018	12.672213630281	1000
1	7032	12.681864756255	1000
1	7046	12.695117079132	1000
1	7055	12.696522529201	1000
1	7074	12.708480564486	1000
1	7103	12.761444425736	1000
1	7111	12.765310470138	1000
1	7129	12.770826186475	1000
1	7163	12.785112820036	1000
1	7185	12.791494011217	1000
1	7193	12.793648115569	1000
1	7252	12.820554211454	1000
1	7261	12.824115172883	1000
1	7275	12.827357838077	1000
1	7288	12.832157322562	1000
1	7292	12.833013733889	1000
1	7356	12.867420206761	1000
1	7370	12.875655412651	1000
1	7378	12.876952400338	1000
1	7392	12.883022971507	1000
1	7405	12.886323959272	1000
1	7426	12.891491465345	1000
1	7455	12.906198341368	1000
1	7469	12.911619247842	1000
1	7477	12.914764531464	1000
1	7499	12.918519857708	1000
1	7519	12.9508228854	1000
1	7532	12.955390110336	1000
1	7547	12.981593137733	1000
1	7560	12.993653999769	1000
1	7576	13.021070029436	1000
1	7596	13.027731589978	1000
1	7635	13.054517911289	1000
1	7643	13.054930171375	1000
1	7647	13.055968324693	1000
1	7700	13.073388946975	1000
1	7715	13.078804994175	1000
1	7723	13.082205648377	1000
1	7743	13.090370566607	1000
1	7771	13.101885346349	1000
1	7794	13.151398212854	1000
1	7814	13.165739568791	1000
1	7828	13.171662246055	1000
1	7842	13.182514515577	1000
1	7850	13.184262435555	1000
1	7870	13.199549422966	1000
1	7904	13.212660946918	1000
1	7919	13.219261035287	1000
1	7971	13.241977213289	1000
1	7999	13.25670295638	1000
1	8014	13.277760060656	1000
1	8029	13.301956391683	1000
1	8078	13.315431846965	1000
1	8088	13.31931300307	1000
1	8114	13.324848356625	1000
1	8142	13.337350939412	1000
1	8181	13.35059027347	1000
1	8198	13.368617626365	1000
1	8217	13.374731991613	1000
1	8267	13.391652523102	1000
1	8280	13.396691931637	1000
1	8323	13.420311944919	1000
1	8331	13.424568302025	1000
1	8350	13.43198276145	1000
1	8373	13.449811314662	1000
1	8386	13.462314173388	1000
1	8394	13.462818793833	1000
1	8442	13.483160118083	1000
1	8493	13.502936005716	1000
1	8501	13.504232240268	1000
1	8531	13.522581707079	1000
1	8539	13.524815052653	1000
1	8543	13.526742415948	1000
1	8597	13.544549785552	1000
1	8666	13.593443680529	1000
1	8721	13.641818617616	1000
1	8746	13.650710661042	1000
1	8812	13.684127788468	1000
1	8821	13.687750592642	1000
1	8840	13.694849528207	1000
1	8870	13.719962126463	1000
1	8878	13.722428964169	1000
1	8882	13.723756605241	1000
1	8895	13.725243769245	1000
1	8931	13.73974921191	1000
1	8939	13.740183975064	1000
1	8953	13.746079566847	1000
1	8957	13.747155966968	1000
1	8962	13.747932846904	1000
1	8975	13.751843545289	1000
1	9009	13.764316209558	1000
1	9051	13.783961769876	1000
1	9068	13.788297761746	1000
1	9087	13.835490470562	1000
1	9114	13.878295968123	1000
1	9122	13.879006226496	1000
1	9187	13.914587058865	1000
1	9213	13.920629955859	1000
1	9230	13.937251166136	1000
1	9238	13.938770406703	1000
1	9260	13.945256327407	1000
1	9279	13.961226193059	1000
1	9306	13.990998172371	1000
1	9314	13.993587095672	1000
1	9368	14.052936548002	1000
1	9381	14.063165351066	1000
1	9407	14.076061899743	1000
1	9435	14.099792403011	1000
1	9444	14.103189945309	1000
1	9457	14.107730369794	1000
1	9503	14.114475728937	1000
1	9511	14.114912494016	1000
1	9547	14.132555292355	1000
1	9561	14.140923699239	1000
1	9569	14.143274851366	1000
1	9595	14.154887551823	1000
1	9604	14.159178819125	1000
1	9625	14.178540085998	1000
1	9638	14.186234172749	1000
1	9655	14.189960600521	1000
1	9687	14.217243614816	1000
1	9704	14.221390355657	1000
1	9748	14.270277881086	1000
1	9789	14.303423780867	1000
1	9797	14.304052609653	1000
1	9818	14.308881088188	1000
1	9831	14.313514797293	1000
1	9845	14.318469775801	1000
1	9859	14.324259826016	1000
1	9880	14.338498455315	1000
1	9933	14.376581188907	1000
1	10000	14.443054461093	1000
1	10017	14.446358697422	1000
1	10047	14.460353540802	1000
1	10062	14.467212205044	1000
1	10077	14.483689810759	1000
1	10105	14.517031040258	1000
1	10113	14.520522861708	1000
1	10139	14.53308757043	1000
1	10154	14.550679703551	1000
1	10167	14.560241473543	1000
1	10181	14.56629607268	1000
1	10189	14.570133207205	1000
1	10202	14.573127431457	1000
1	10249	14.598882368872	1000
1	10290	14.616768774403	1000
1	10304	14.625888570356	1000
1	10312	14.626342607898	1000
1	10316	14.626514856354	1000
1	10330	14.631539355036	1000
1	10334	14.634299849332	1000
1	10366	14.640937397204	1000
1	10395	14.650590254498	1000
1	10409	14.654061656558	1000
1	10423	14.658428584108	1000
1	10427	14.660555886359	1000
1	10440	14.66157710652	1000
1	10470	14.674731858387	1000
1	10485	14.683688323732	1000
1	10494	14.686942521047	1000
1	10508	14.690740539353	1000
1	10521	14.69336399706	1000
1	10555	14.707939914347	1000
1	10601	14.722153383539	1000
1	10625	14.740388157491	1000
1	10633	14.742608596388	1000
1	10662	14.748230655822	1000
1	10690	14.754639381974	1000
1	10699	14.75481807704	1000
1	10722	14.774296482757	1000
1	10748	14.791210647863	1000
1	10763	14.801551996931	1000
1	10777	14.809151755045	1000
1	10790	14.81472071894	1000
1	10799	14.816220562521	1000
1	10820	14.836354675985	1000
1	10847	14.876417004168	1000
1	10872	14.885952687308	1000
1	10932	14.912023797953	1000
1	10961	14.93590604052	1000
1	10979	14.939814635008	1000
1	10997	14.958731412636	1000
1	11010	14.968850852805	1000
1	11025	14.986744301399	1000
1	11052	15.006191245206	1000
1	11060	15.008104823916	1000
1	11081	15.025046002738	1000
1	11101	15.033757114613	1000
1	11109	15.036736509213	1000
1	11123	15.040583861101	1000
1	11127	15.041064007768	1000
1	11156	15.047812500771	1000
1	11178	15.054866686128	1000
1	11221	15.063242029223	1000
1	11251	15.077609722823	1000
1	11265	15.082684536213	1000
1	11279	15.095887576893	1000
1	11288	15.098096700989	1000
1	11314	15.107843469566	1000
1	11323	15.111893562328	1000
1	11369	15.139724288249	1000
1	11420	15.157044696753	1000
1	11489	15.207747899571	1000
1	11510	15.220396170017	1000
1	11531	15.225329400718	1000
1	11544	15.23207978615	1000
1	11553	15.234776525334	1000
1	11580	15.242789743946	1000
1	11608	15.273760214411	1000
1	11616	15.275271728234	1000
1	11620	15.275577884219	1000
1	11677	15.303046529355	1000
1	11717	15.342908396928	1000
1	11731	15.355309816665	1000
1	11746	15.373003032661	1000
1	11754	15.373746532789	1000
1	11758	15.376573081548	1000
1	11778	15.378276071072	1000
1	11782	15.380852764601	1000
1	11814	15.394732765498	1000
1	11827	15.396021845411	1000
1	11909	15.419646274252	1000
1	11918	15.423904969334	1000
1	11937	15.427438449451	1000
1	11963	15.433657130824	1000
1	11972	15.43446515654	1000
1	12021	15.449386642097	1000
1	12036	15.455448942708	1000
1	12050	15.467294042891	1000
1	12059	15.471507944034	1000
1	12077	15.479668511413	1000
1	12092	15.487086105884	1000
1	12100	15.49048086554	1000
1	12114	15.494148517637	1000
1	12141	15.502221240717	1000
1	12158	15.519942810469	1000
1	12196	15.534567850022	1000
1	12210	15.539000094516	1000
1	12259	15.567618458235	1000
1	12274	15.582433737749	1000
1	12282	15.58336825714	1000
1	12307	15.593039083231	1000
1	12338	15.600966290551	1000
1	12399	15.626528870738	1000
1	12440	15.656312141251	1000
1	12448	15.657103580146	1000
1	12469	15.679715049698	1000
1	12477	15.683408983414	1000
1	12490	15.684691644177	1000
1	12550	15.733896464401	1000
1	12564	15.741262351186	1000
1	12598	15.759933988476	1000
1	12615	15.764263529828	1000
1	12633	15.776685331968	1000
1	12642	15.779309937146	1000
1	12661	15.79266957027	1000
1	12669	15.792866206081	1000
1	12689	15.805219832698	1000
1	12718	15.832623551131	1000
1	12731	15.838609377799	1000
1	12745	15.847286893563	1000
1	12766	15.855130093057	1000
1	12774	15.857466741287	1000
1	12787	15.860142650318	1000
1	12801	15.86427602999	1000
1	12850	15.879471275084	1000
1	12877	15.892672713809	1000
1	12905	15.904795572922	1000
1	12957	15.92423358541	1000
1	12967	15.92765010071	1000
1	13006	15.941139398794	1000
1	13021	15.954009896756	1000
1	13030	15.957503224874	1000
1	13050	15.972756082407	1000
1	13088	15.989856010741	1000
1	13096	15.991284791838	1000
1	13101	15.991804242812	1000
1	13114	15.994905466173	1000
1	13135	15.999992330867	1000
1	13140	16.002475694066	1000
1	13163	16.008424068939	1000
1	13168	16.009886926493	1000
1	13172	16.010290770789	1000
1	13221	16.029373285091	1000
1	13229	16.0299322314	1000
1	13234	16.032579734102	1000
1	13264	16.038805495996	1000
1	13268	16.038818897674	1000
1	13273	16.041447219808	1000
1	13287	16.045508888995	1000
1	13327	16.064229207631	1000
1	13342	16.076815301581	1000
1	13356	16.077961813755	1000
1	13376	16.086314724845	1000
1	13400	16.103979256194	1000
1	13414	16.132643297737	1000
1	13447	16.150417296757	1000
1	13474	16.168161203364	1000
1	13555	16.198953410271	1000
1	13564	16.200285858736	1000
1	13598	16.24888328277	1000
1	13606	16.249803604254	1000
1	13625	16.257906498835	1000
1	13641	16.273986371157	1000
1	13668	16.306746460658	1000
1	13694	16.31121541635	1000
1	13709	16.319495676055	1000
1	13745	16.334014993766	1000
1	13753	16.335803076783	1000
1	13766	16.338390998225	1000
1	13780	16.34571576665	1000
1	13821	16.369530515105	1000
1	13829	16.370432666928	1000
1	13872	16.383752268897	1000
1	13901	16.3974673596	1000
1	13918	16.420019324588	1000
1	13938	16.427333189248	1000
1	13955	16.430527500573	1000
1	13986	16.447779801305	1000
1	13999	16.452954204285	1000
1	14007	16.454686581736	1000
1	14021	16.457430090587	1000
1	14041	16.471432076921	1000
1	14056	16.480102502849	1000
1	14070	16.487832155935	1000
1	14078	16.488684912533	1000
1	14082	16.491804277334	1000
1	14118	16.497121980816	1000
1	14166	16.515714993247	1000
1	14206	16.531093515283	1000
1	14220	16.536661067428	1000
1	14228	16.536899724716	1000
1	14232	16.537400529337	1000
1	14237	16.540978518474	1000
1	14276	16.557154714982	1000
1	14305	16.57473458144	1000
1	14318	16.580652120678	1000
1	14379	16.627017155354	1000
1	14435	16.654508024017	1000
1	14449	16.665111501139	1000
1	14457	16.668390505226	1000
1	14471	16.672693951325	1000
1	14484	16.674386853748	1000
1	14504	16.687441113297	1000
1	14525	16.692490260026	1000
1	14547	16.701532932506	1000
1	14562	16.713225232017	1000
1	14576	16.720457311339	1000
1	14584	16.72102724153	1000
1	14605	16.741786896898	1000
1	14618	16.747154249515	1000
1	14631	16.751524981881	1000
1	14667	16.798865074495	1000
1	14681	16.805422204299	1000
1	14695	16.81825684813	1000
1	14703	16.818961101435	1000
1	14760	16.834285546097	1000
1	14794	16.848128649779	1000
1	14809	16.854610325974	1000
1	14822	16.861869329455	1000
1	14880	16.872560075211	1000
1	14924	16.898160997357	1000
1	14951	16.916906195256	1000
1	14959	16.919311372409	1000
1	14963	16.92073980654	1000
1	14976	16.923317963022	1000
1	15032	16.945847131912	1000
1	15084	16.961654721151	1000
1	15113	16.978356725273	1000
1	15143	16.991403684102	1000
1	15198	17.013803900157	1000
1	15211	17.018609145405	1000
1	15264	17.043629086579	1000
1	15281	17.046572286439	1000
1	15285	17.04710868647	1000
1	15312	17.057984346742	1000
1	15326	17.06424483155	1000
1	15341	17.077658744808	1000
1	15429	17.113875033106	1000
1	15437	17.114302426627	1000
1	15462	17.123593266304	1000
1	15476	17.130806801087	1000
1	15484	17.132208545285	1000
1	15583	17.17377361865	1000
1	15595	17.174748045775	1000
1	15623	17.194361150173	1000
1	15637	17.200607396612	1000
1	15645	17.202601424483	1000
1	15658	17.20524199122	1000
1	15662	17.205504877041	1000
1	15686	17.216778738563	1000
1	15700	17.220103810395	1000
1	15729	17.237387254237	1000
1	15782	17.272262320889	1000
1	15795	17.279572902391	1000
1	15848	17.309245842548	1000
1	15863	17.318967243914	1000
1	15916	17.337179864348	1000
1	15930	17.351442825685	1000
1	15945	17.375038457769	1000
1	15972	17.397900159941	1000
1	15993	17.408949848257	1000
1	16008	17.429171761118	1000
1	16066	17.460420342331	1000
1	16095	17.480870418442	1000
1	16108	17.491524972024	1000
1	16116	17.492068103688	1000
1	16130	17.498840040957	1000
1	16156	17.505423952545	1000
1	16198	17.528406464604	1000
1	16206	17.528463570364	1000
1	16227	17.533759259958	1000
1	16231	17.537092548126	1000
1	16259	17.546819119626	1000
1	16281	17.555547835759	1000
1	16337	17.604390553753	1000
1	16345	17.605446139335	1000
1	16364	17.61680620347	1000
1	16380	17.634198053894	1000
1	16388	17.635590659246	1000
1	16411	17.645602905947	1000
1	16433	17.652144464743	1000
1	16450	17.66778883181	1000
1	16467	17.670751664386	1000
1	16495	17.680355089998	1000
1	16503	17.680757094459	1000
1	16517	17.685213259154	1000
1	16554	17.706552266827	1000
1	16574	17.712243888903	1000
1	16622	17.745658613202	1000
1	16636	17.766698077429	1000
1	16649	17.771939765663	1000
1	16662	17.77815238859	1000
1	16670	17.780171150462	1000
1	16684	17.782911198785	1000
1	16710	17.791796802867	1000
1	16719	17.794571688961	1000
1	16761	17.813737435903	1000
1	16775	17.823866166133	1000
1	16783	17.825339791125	1000
1	16797	17.82827953837	1000
1	16831	17.855691155923	1000
1	16839	17.858994252283	1000
1	16843	17.85955529043	1000
1	16891	17.882229858021	1000
1	16899	17.883623991227	1000
1	16912	17.888281936495	1000
1	16926	17.892998428594	1000
1	16940	17.898897238988	1000
1	16961	17.907836167562	1000
1	16988	17.918563741873	1000
1	16996	17.919570172781	1000
1	17016	17.93060255089	1000
1	17025	17.933863823226	1000
1	17065	17.951085933749	1000
1	17134	17.968409781285	1000
1	17142	17.969571406217	1000
1	17175	17.982590312654	1000
1	17187	17.985144534625	1000
1	17208	17.988928912896	1000
1	17229	18.00041998565	1000
1	17245	18.015004720272	1000
1	17253	18.015184865831	1000
1	17283	18.027530844208	1000
1	17306	18.035408169531	1000
1	17320	18.042782119955	1000
1	17342	18.061422689901	1000
1	17350	18.0652543932	1000
1	17383	18.09143278024	1000
1	17397	18.104590711718	1000
1	17418	18.116259012594	1000
1	17427	18.119842160725	1000
1	17446	18.133466520783	1000
1	17455	18.137024247993	1000
1	17475	18.154862015365	1000
1	17495	18.160983632695	1000
1	17511	18.175687115794	1000
1	17519	18.178042228437	1000
1	17532	18.180295140623	1000
1	17545	18.186908690507	1000
1	17549	18.187832876797	1000
1	17606	18.210163914283	1000
1	17660	18.23959212812	1000
1	17668	18.240496572592	1000
1	17695	18.257960154677	1000
1	17718	18.275504958085	1000
1	17731	18.285860249605	1000
1	17747	18.304533170733	1000
1	17797	18.322693042409	1000
1	17849	18.335694569627	1000
1	17901	18.36105872593	1000
1	17914	18.368561861098	1000
1	17986	18.396806168225	1000
1	18003	18.413380527234	1000
1	18011	18.413536057917	1000
1	18031	18.448902647205	1000
1	18044	18.460841357618	1000
1	18085	18.502222482831	1000
1	18106	18.512661627339	1000
1	18146	18.530365177946	1000
1	18172	18.538743321261	1000
1	18187	18.549494536435	1000
1	18214	18.574379178071	1000
1	18255	18.623315936298	1000
1	18277	18.660788297356	1000
1	18329	18.698909401449	1000
1	18345	18.720183347912	1000
1	18358	18.728210998846	1000
1	18379	18.73573328121	1000
1	18417	18.747556966708	1000
1	18470	18.76800861429	1000
1	18486	18.775147948164	1000
1	18501	18.793540927275	1000
1	18509	18.79426383803	1000
1	18528	18.798359421051	1000
1	18549	18.808093474976	1000
1	18564	18.816648742117	1000
1	18577	18.821165940814	1000
1	18586	18.824865503504	1000
1	18632	18.850526295516	1000
1	18646	18.858984042198	1000
1	18660	18.869966978073	1000
1	18674	18.87497874146	1000
1	18682	18.877468359661	1000
1	18702	18.891825511445	1000
1	18711	18.894137982487	1000
1	18724	18.896845237886	1000
1	18738	18.902526844038	1000
1	18765	18.910619904636	1000
1	18773	18.912491301681	1000
1	18830	18.926791518879	1000
1	18839	18.929830388315	1000
1	18860	18.939145747337	1000
1	18875	18.951543980015	1000
1	18884	18.953943956764	1000
1	18904	18.960101661369	1000
1	18952	18.971574433935	1000
1	18967	18.98026149552	1000
1	18996	19.01025588594	1000
1	19009	19.015541335045	1000
1	19022	19.022815941833	1000
1	19030	19.023463046295	1000
1	19035	19.026539465992	1000
1	19058	19.033806208476	1000
1	19091	19.047718061086	1000
1	19165	19.099462481892	1000
1	19196	19.106939101913	1000
1	19218	19.136540810656	1000
1	19231	19.141466062477	1000
1	19256	19.150344508294	1000
1	19272	19.161244959972	1000
1	19322	19.172245982676	1000
1	19340	19.193791260785	1000
1	19360	19.198542350473	1000
1	19368	19.199871306517	1000
1	19373	19.200918025581	1000
1	19424	19.234116926869	1000
1	19432	19.235939502646	1000
1	19471	19.25976357997	1000
1	19479	19.261070556888	1000
1	19492	19.265520756255	1000
1	19528	19.276733621299	1000
1	19569	19.302961878298	1000
1	19577	19.304397440554	1000
1	19604	19.314205922472	1000
1	19632	19.334255492039	1000
1	19640	19.334575579283	1000
1	19660	19.349803216706	1000
1	19687	19.366287726275	1000
1	19695	19.370107656213	1000
1	19699	19.370624437778	1000
1	19744	19.413310247722	1000
1	19757	19.424827994666	1000
1	19771	19.431569704953	1000
1	19779	19.432419106331	1000
1	19798	19.440756765437	1000
1	19806	19.444785374418	1000
1	19825	19.450064703194	1000
1	19841	19.46043506067	1000
1	19849	19.463647192834	1000
1	19863	19.465385171742	1000
1	19867	19.466112478397	1000
1	19890	19.476401747217	1000
1	19894	19.476513239453	1000
1	19947	19.508045226547	1000
1	19955	19.509209281871	1000
1	19982	19.531421367215	1000
1	20007	19.545736901446	1000
1	20016	19.54625792593	1000
1	20020	19.547758508587	1000
1	20034	19.553526988925	1000
1	20077	19.561629638979	1000
1	20091	19.564140259161	1000
1	20105	19.568619979347	1000
1	20120	19.575956323909	1000
1	20134	19.578456580478	1000
1	20161	19.589903331366	1000
1	20188	19.598160765899	1000
1	20205	19.613855506509	1000
1	20213	19.615398323101	1000
1	20217	19.617082368599	1000
1	20230	19.620189683217	1000
1	20271	19.629303496715	1000
1	20309	19.641707461448	1000
1	20344	19.656741210694	1000
1	20365	19.664912644423	1000
1	20391	19.675376742784	1000
1	20399	19.677226535669	1000
1	20433	19.686382243606	1000
1	20447	19.68763065799	1000
1	20469	19.697021814657	1000
1	20487	19.700111805286	1000
1	20499	19.701716399205	1000
1	20567	19.741677357937	1000
1	20580	19.746123756136	1000
1	20617	19.755777702332	1000
1	20655	19.775420716993	1000
1	20682	19.794236668838	1000
1	20723	19.833952124974	1000
1	20737	19.850976041962	1000
1	20745	19.851919505339	1000
1	20765	19.859331597712	1000
1	20778	19.860997489159	1000
1	20847	19.903128646581	1000
1	20855	19.9045796723	1000
1	20886	19.919942341458	1000
1	20895	19.922270207604	1000
1	20962	19.956384722793	1000
1	20970	19.957245057037	1000
1	20990	19.981427161605	1000
1	21281	20.012482380563	1000
1	21319	20.02172269052	1000
1	21506	20.068000039829	1000
1	21543	20.07405388012	1000
1	21582	20.085107821928	1000
1	21586	20.08589341258	1000
1	21619	20.092222106514	1000
1	21672	20.107605322395	1000
1	21691	20.110878667976	1000
1	21825	20.145430621641	1000
1	21884	20.159360944124	1000
1	21907	20.16342991815	1000
1	21983	20.181013912964	1000
1	21987	20.182055843042	1000
1	22152	20.226214606132	1000
1	22170	20.226821100762	1000
1	22284	20.259339783098	1000
1	22305	20.262837716998	1000
1	22377	20.279854808848	1000
1	22381	20.279855693244	1000
1	22399	20.283375912045	1000
1	22451	20.299968351123	1000
1	22506	20.309088415057	1000
1	22511	20.310553777853	1000
1	22530	20.316556951942	1000
1	22563	20.322207547735	1000
1	22598	20.332284011734	1000
1	22653	20.34551462694	1000
1	22740	20.367568034756	1000
1	22778	20.375819537674	1000
1	22799	20.381790931058	1000
1	22819	20.383656420911	1000
1	22889	20.403262599726	1000
1	22960	20.418257373947	1000
1	22982	20.424562096493	1000
1	23018	20.433330598203	1000
1	23249	20.446460646744	1000
1	23295	20.448621735728	1000
1	23306	20.448952629773	1000
1	23396	20.453536607885	1000
1	23600	20.464400373045	1000
1	23624	20.472400915585	1000
1	23689	20.481549768505	1000
1	23707	20.487074702321	1000
1	23722	20.488930057023	1000
1	23798	20.513295915053	1000
1	23828	20.518441482623	1000
1	23879	20.533077208045	1000
1	23909	20.537277129816	1000
1	23941	20.551938974314	1000
1	23974	20.557977445459	1000
1	23988	20.560428402225	1000
1	24020	20.568214574557	1000
1	24046	20.571602780002	1000
1	24097	20.582102779998	1000
1	24120	20.585684233872	1000
1	24149	20.595451690122	1000
1	24244	20.623892197758	1000
1	24275	20.635206578615	1000
1	24334	20.645828054962	1000
1	24383	20.662165173567	1000
1	24407	20.668541211199	1000
1	24437	20.673810339195	1000
1	24441	20.674348580837	1000
1	24462	20.676791676839	1000
1	24473	20.680040626645	1000
1	24478	20.682473432666	1000
1	24529	20.699340817423	1000
1	24625	20.740554856323	1000
1	24639	20.753054563947	1000
1	24647	20.75341105858	1000
1	24668	20.760261262126	1000
1	24767	20.78892853631	1000
1	24927	20.843179923735	1000
1	24956	20.857445283199	1000
1	24978	20.864230631201	1000
1	25006	20.894498938871	1000
1	25014	20.895790222388	1000
1	25072	20.914395731504	1000
1	25114	20.935413138376	1000
1	25200	20.983923157013	1000
1	25211	20.985388142978	1000
1	25243	21.000839549665	1000
1	25271	21.020016299186	1000
1	25284	21.024640849393	1000
1	25299	21.037675641185	1000
1	25307	21.038238858304	1000
1	25330	21.045719954033	1000
1	25354	21.052590904434	1000
1	25369	21.06479150249	1000
1	25378	21.067846762161	1000
1	25410	21.090432698263	1000
1	25433	21.105422265809	1000
1	25493	21.153540685761	1000
1	25513	21.160248249438	1000
1	25540	21.185798549734	1000
1	25548	21.187730637262	1000
1	25570	21.217092621927	1000
1	25578	21.220651641117	1000
1	25617	21.236863875024	1000
1	25630	21.241463674356	1000
1	25645	21.25267727116	1000
1	25667	21.271350082787	1000
1	25681	21.292627449215	1000
1	25695	21.305837866641	1000
1	25716	21.312400967827	1000
1	25757	21.343688443337	1000
1	25765	21.345511120838	1000
1	25790	21.356879483566	1000
1	25804	21.36216029749	1000
1	25832	21.386408359787	1000
1	25870	21.397774954231	1000
1	25899	21.410669401167	1000
1	25941	21.454300981917	1000
1	25949	21.457154549268	1000
1	25982	21.494067717964	1000
1	26020	21.500196543118	1000
1	26049	21.522884524164	1000
1	26057	21.524373686977	1000
1	26061	21.526923477105	1000
1	26091	21.54562489646	1000
1	26119	21.58308379202	1000
1	26132	21.588882241492	1000
1	26161	21.62800052863	1000
1	26195	21.648606306315	1000
1	26203	21.651365151831	1000
1	26234	21.664133260762	1000
1	26250	21.682820273983	1000
1	26258	21.684112255079	1000
1	26285	21.701085387554	1000
1	26324	21.716992793282	1000
1	26339	21.728102309121	1000
1	26353	21.736364890907	1000
1	26367	21.748797224685	1000
1	26381	21.755692941405	1000
1	26395	21.767127386942	1000
1	26433	21.780943303216	1000
1	26455	21.789954701748	1000
1	26479	21.809344606146	1000
1	26487	21.809963802813	1000
1	26509	21.81651937411	1000
1	26520	21.82044863667	1000
1	26540	21.830104038791	1000
1	26555	21.837070129085	1000
1	26563	21.837197835047	1000
1	26596	21.877402043773	1000
1	26604	21.880345980707	1000
1	26608	21.880852686126	1000
1	26638	21.889918048346	1000
1	26691	21.922255524442	1000
1	26711	21.932799501087	1000
1	26720	21.937140592621	1000
1	26738	21.941945622936	1000
1	26752	21.950067808357	1000
1	26766	21.955346588045	1000
1	26775	21.959235336998	1000
1	26788	21.960817799087	1000
1	26829	21.9836597152	1000
1	26843	21.996919477034	1000
1	26864	22.00413560754	1000
1	26884	22.008015279885	1000
1	26901	22.013421324122	1000
1	26937	22.032989886838	1000
1	26951	22.038830967292	1000
1	26965	22.052757714379	1000
1	26979	22.063392127114	1000
1	27000	22.075525594408	1000
1	27008	22.076501089389	1000
1	27023	22.081185912529	1000
1	27036	22.085146902755	1000
1	27066	22.107410224396	1000
1	27093	22.147332080805	1000
1	27106	22.15637128792	1000
1	27167	22.203140231715	1000
1	27181	22.211862067713	1000
1	27190	22.213575715244	1000
1	27211	22.231393438032	1000
1	27249	22.27098597484	1000
1	27317	22.286093786132	1000
1	27325	22.288422903197	1000
1	27374	22.318541173504	1000
1	27388	22.324388946124	1000
1	27396	22.328325642748	1000
1	27423	22.33878374111	1000
1	27475	22.354743633841	1000
1	27491	22.375370265829	1000
1	27505	22.390289966651	1000
1	27519	22.404242086633	1000
1	27528	22.406751574531	1000
1	27560	22.431578888855	1000
1	27588	22.477422565481	1000
1	27605	22.478360742698	1000
1	27619	22.482895946967	1000
1	27633	22.489155806344	1000
1	27653	22.498329772438	1000
1	27675	22.503401757903	1000
1	27703	22.51886452257	1000
1	27717	22.52390120878	1000
1	27730	22.53049205829	1000
1	27744	22.536725633403	1000
1	27771	22.546252033797	1000
1	27779	22.548866757575	1000
1	27793	22.55241273646	1000
1	27814	22.55899937657	1000
1	27825	22.560598962027	1000
1	27847	22.571016061455	1000
1	27861	22.577529894116	1000
1	27878	22.600527362463	1000
1	27891	22.612164975864	1000
1	27919	22.626870226118	1000
1	27930	22.631002855965	1000
1	27941	22.631466644025	1000
1	27955	22.637402733651	1000
1	27976	22.652278154138	1000
1	27990	22.660096981359	1000
1	28004	22.667824094405	1000
1	28012	22.669260153748	1000
1	28097	22.725078883223	1000
1	28112	22.734254831846	1000
1	28120	22.736603943263	1000
1	28124	22.738153205592	1000
1	28153	22.749571491057	1000
1	28168	22.757902163245	1000
1	28221	22.795960171242	1000
1	28229	22.798492683635	1000
1	28293	22.854419859966	1000
1	28351	22.875131010252	1000
1	28368	22.876372024638	1000
1	28391	22.881842725635	1000
1	28441	22.908621515145	1000
1	28449	22.909680125736	1000
1	28453	22.911850954982	1000
1	28482	22.923634276856	1000
1	28496	22.93091265899	1000
1	28505	22.932750283986	1000
1	28518	22.936353395035	1000
1	28558	22.950020423332	1000
1	28566	22.950888875863	1000
1	28571	22.953970695784	1000
1	28594	22.961843270366	1000
1	28616	22.986959126424	1000
1	28631	23.017982134628	1000
1	28651	23.024501419636	1000
1	28717	23.089808217343	1000
1	28726	23.093946294127	1000
1	28767	23.111917493627	1000
1	28775	23.115749212994	1000
1	28793	23.12149692914	1000
1	28808	23.131768060219	1000
1	28857	23.169535608318	1000
1	28871	23.186536336611	1000
1	28879	23.190196573553	1000
1	28897	23.195572913975	1000
1	28919	23.200924792824	1000
1	28973	23.227181417274	1000
1	29027	23.275268034479	1000
1	29093	23.309958917405	1000
1	29101	23.31007846208	1000
1	29105	23.313896460647	1000
1	29118	23.316946358495	1000
1	29142	23.324440794911	1000
1	29155	23.327633691684	1000
1	29160	23.331574463651	1000
1	29174	23.336007530763	1000
1	29226	23.371327162274	1000
1	29239	23.37900082074	1000
1	29247	23.380894335821	1000
1	29261	23.386407798654	1000
1	29281	23.390481125642	1000
1	29308	23.398678813441	1000
1	29317	23.401865442282	1000
1	29340	23.430010379701	1000
1	29380	23.453075604924	1000
1	29433	23.479206421163	1000
1	29441	23.479362443287	1000
1	29460	23.494976565576	1000
1	29510	23.521185852827	1000
1	29527	23.523410667258	1000
1	29547	23.526755296362	1000
1	29572	23.534411064695	1000
1	29580	23.535072941953	1000
1	29620	23.545698837047	1000
1	29674	23.56511939605	1000
1	29682	23.565488475019	1000
1	29696	23.571758120972	1000
1	29700	23.572123816718	1000
1	29704	23.573518112899	1000
1	29757	23.58793443425	1000
1	29766	23.588609187078	1000
1	29787	23.592575203861	1000
1	29801	23.598673786443	1000
1	29869	23.625625126389	1000
1	29880	23.628021791282	1000
1	29912	23.64533600866	1000
1	29926	23.652913178726	1000
1	29934	23.652979486883	1000
1	29955	23.672926639596	1000
1	29963	23.673355500967	1000
1	29984	23.705944805257	1000
1	29997	23.711278924067	1000
1	30032	23.727333571778	1000
1	30072	23.750161224513	1000
1	30080	23.751381780705	1000
1	30098	23.764219943206	1000
1	30113	23.772180796803	1000
1	30174	23.803923615884	1000
1	30185	23.80587301566	1000
1	30216	23.822706509277	1000
1	30230	23.828034957742	1000
1	30251	23.838578406465	1000
1	30268	23.839726903106	1000
1	30285	23.85073653152	1000
1	30313	23.870958931684	1000
1	30327	23.875465710799	1000
1	30335	23.879074375749	1000
1	30348	23.880307731327	1000
1	30352	23.883822747157	1000
1	30365	23.884807715162	1000
1	30425	23.915820556776	1000
1	30439	23.920634509733	1000
1	30447	23.922528459771	1000
1	30451	23.922623796505	1000
1	30481	23.93569932258	1000
1	30495	23.941396650912	1000
1	30509	23.949015585934	1000
1	30536	23.951121947148	1000
1	30553	23.958529449312	1000
1	30587	23.968125381363	1000
1	30607	23.972634327071	1000
1	30616	23.972974569877	1000
1	30620	23.973331995707	1000
1	30651	23.983674251445	1000
1	30665	23.989862469274	1000
1	30679	23.992140113906	1000
1	30712	24.001965912577	1000
1	30742	24.020919126241	1000
1	30750	24.022287620791	1000
1	30763	24.02543828062	1000
1	30802	24.052731602571	1000
1	30815	24.058468701471	1000
1	30843	24.085255508944	1000
1	30851	24.085786326098	1000
1	30892	24.105145298479	1000
1	30945	24.138557222542	1000
1	30966	24.146213498123	1000
1	30981	24.160755104307	1000
1	30994	24.165980780722	1000
1	31015	24.179003480921	1000
1	31031	24.20187526573	1000
1	31051	24.208899661699	1000
1	31079	24.224895557582	1000
1	31094	24.2621423268	1000
1	31107	24.266838881874	1000
1	31120	24.271328590023	1000
1	31128	24.272963659338	1000
1	31148	24.283567309203	1000
1	31177	24.307931301696	1000
1	31204	24.331680532905	1000
1	31231	24.358934776328	1000
1	31245	24.371511154581	1000
1	31274	24.40957817441	1000
1	31291	24.413623123253	1000
1	31308	24.418135522673	1000
1	31322	24.420676774269	1000
1	31368	24.448540880333	1000
1	31395	24.47199771152	1000
1	31403	24.475158821045	1000
1	31425	24.477815812805	1000
1	31445	24.480833919708	1000
1	31471	24.490510837965	1000
1	31500	24.502029351602	1000
1	31534	24.513146260558	1000
1	31556	24.526169295086	1000
1	31577	24.536607787562	1000
1	31605	24.56105370161	1000
1	31619	24.576422539154	1000
1	31632	24.583930460386	1000
1	31646	24.596010320542	1000
1	31668	24.609806814222	1000
1	31701	24.61857296088	1000
1	31709	24.620926101359	1000
1	31789	24.664239654536	1000
1	31804	24.673898948184	1000
1	31832	24.699202351408	1000
1	31846	24.706015206613	1000
1	31905	24.726509019516	1000
1	31918	24.73173789274	1000
1	31934	24.743183825673	1000
1	31973	24.766228434284	1000
1	31982	24.767254050569	1000
1	32008	24.777626334438	1000
1	32030	24.786593054708	1000
1	32044	24.79422818248	1000
1	32052	24.796465960684	1000
1	32113	24.841547028572	1000
1	32121	24.845710719331	1000
1	32125	24.84576472116	1000
1	32147	24.849446354023	1000
1	32158	24.850573368516	1000
1	32172	24.857133097934	1000
1	32192	24.862162866303	1000
1	32224	24.869432994922	1000
1	32259	24.91432689454	1000
1	32279	24.928611345554	1000
1	32293	24.936292609392	1000
1	32301	24.937295884529	1000
1	32320	24.945798315618	1000
1	32334	24.951264750242	1000
1	32342	24.954208976914	1000
1	32377	24.9937151463	1000
1	32391	25.004302554885	1000
1	32417	25.013469408979	1000
1	32433	25.041601601782	1000
1	32453	25.046692714385	1000
1	32466	25.052832835553	1000
1	32475	25.056396596603	1000
1	32495	25.070314910246	1000
1	32504	25.072312871403	1000
1	32524	25.077121399295	1000
1	32537	25.081280107749	1000
1	32551	25.085300647131	1000
1	32555	25.086642983946	1000
1	32594	25.104169001616	1000
1	32603	25.107251828924	1000
1	32629	25.121931831703	1000
1	32651	25.139743070109	1000
1	32659	25.140904896513	1000
1	32690	25.154786636224	1000
1	32719	25.178567121793	1000
1	32734	25.204596431284	1000
1	32774	25.244865266397	1000
1	32782	25.24896519027	1000
1	32795	25.250904634204	1000
1	32828	25.273295035803	1000
1	32836	25.274462225339	1000
1	32850	25.281743751517	1000
1	32854	25.281974882369	1000
1	32876	25.285574120275	1000
1	32916	25.296919212083	1000
1	32947	25.317314753651	1000
1	32979	25.338611677641	1000
1	33017	25.358768822607	1000
1	33031	25.3670539776	1000
1	33045	25.374335197427	1000
1	33098	25.39681808322	1000
1	33113	25.406405937369	1000
1	33127	25.413525634091	1000
1	33147	25.420257254104	1000
1	33162	25.428213232292	1000
1	33170	25.43028427529	1000
1	33184	25.436606248285	1000
1	33203	25.446622849548	1000
1	33232	25.477334220111	1000
1	33245	25.483261575307	1000
1	33253	25.484308922226	1000
1	33279	25.494387304251	1000
1	33288	25.498679871377	1000
1	33322	25.514767684324	1000
1	33362	25.554665317781	1000
1	33401	25.580599583176	1000
1	33409	25.580729618309	1000
1	33509	25.650626181478	1000
1	33523	25.655123598067	1000
1	33543	25.662732331385	1000
1	33552	25.666246356081	1000
1	33572	25.678895905999	1000
1	33593	25.683855616401	1000
1	33606	25.689162183784	1000
1	33620	25.695690644368	1000
1	33637	25.69787905021	1000
1	33657	25.711413334988	1000
1	33679	25.729862447237	1000
1	33692	25.736304272835	1000
1	33700	25.738484497697	1000
1	33720	25.753414504695	1000
1	33746	25.761779074846	1000
1	33778	25.782793194513	1000
1	33855	25.819721830385	1000
1	33884	25.852468198442	1000
1	33910	25.866662241013	1000
1	33925	25.876600194555	1000
1	33933	25.880682200255	1000
1	33956	25.884815117866	1000
1	33967	25.886565042706	1000
1	33971	25.889395546202	1000
1	33984	25.890091819438	1000
1	34023	25.906525714805	1000
1	34045	25.913363756179	1000
1	34059	25.92364295312	1000
1	34073	25.928332438271	1000
1	34081	25.928403915795	1000
1	34094	25.935247267976	1000
1	34108	25.938102645111	1000
1	34137	25.956053729941	1000
1	34162	25.969317054906	1000
1	34177	25.982443475996	1000
1	34217	26.03115812186	1000
1	34284	26.079914609446	1000
1	34292	26.084047860159	1000
1	34311	26.093916558479	1000
1	34339	26.107344765101	1000
1	34354	26.116816793896	1000
1	34384	26.125384023708	1000
1	34401	26.127176149081	1000
1	34405	26.128490718345	1000
1	34417	26.133111876695	1000
1	34430	26.138386697573	1000
1	34467	26.149760856055	1000
1	34489	26.157822780896	1000
1	34504	26.165717574276	1000
1	34548	26.176217687215	1000
1	34565	26.183874621496	1000
1	34595	26.200918569463	1000
1	34603	26.204624760409	1000
1	34616	26.208763324422	1000
1	34629	26.211111366336	1000
1	34633	26.21348448238	1000
1	34709	26.2556064041	1000
1	34718	26.2591223082	1000
1	34751	26.286722976118	1000
1	34759	26.288740071356	1000
1	34825	26.335879141508	1000
1	34833	26.337356674935	1000
1	34852	26.347568210804	1000
1	34880	26.379720467767	1000
1	34920	26.401416420528	1000
1	34928	26.40312233749	1000
1	34957	26.420865745676	1000
1	34971	26.449047412991	1000
1	35037	26.526635405581	1000
1	35169	26.649425191071	1000
1	35202	26.661702279131	1000
1	35217	26.672639890696	1000
1	35231	26.67947714403	1000
1	35264	26.690798680817	1000
1	35272	26.692561609796	1000
1	35286	26.698082455601	1000
1	35309	26.726239327936	1000
1	35326	26.728198120986	1000
1	35342	26.739009925616	1000
1	35356	26.743553303151	1000
1	35371	26.754640283972	1000
1	35380	26.75832928761	1000
1	35413	26.782488917878	1000
1	35421	26.785998960092	1000
1	35459	26.796901444188	1000
1	35467	26.798933302445	1000
1	35482	26.802885188254	1000
1	35486	26.803338166287	1000
1	35500	26.807656522102	1000
1	35555	26.825352579771	1000
1	35583	26.83501400908	1000
1	35591	26.836623087035	1000
1	35605	26.841932114815	1000
1	35632	26.850784379572	1000
1	35654	26.862797056252	1000
1	35675	26.871471071361	1000
1	35692	26.897900721775	1000
1	35731	26.913584298307	1000
1	35739	26.914758463664	1000
1	35760	26.931571953328	1000
1	35788	26.955750241288	1000
1	35808	26.967814463883	1000
1	35817	26.971801935933	1000
1	35883	27.022412257966	1000
1	35910	27.03830678011	1000
1	35924	27.047787937345	1000
1	35954	27.054624868169	1000
1	35962	27.058541426715	1000
1	35966	27.058602202822	1000
1	35979	27.061076217072	1000
1	36010	27.076497266766	1000
1	36053	27.116304678218	1000
1	36109	27.140804563806	1000
1	36143	27.166772219019	1000
1	36156	27.179409091246	1000
1	36205	27.231515829432	1000
1	36218	27.236275286641	1000
1	36226	27.239399921841	1000
1	36259	27.262596316168	1000
1	36273	27.265776789238	1000
1	36303	27.306500612666	1000
1	36317	27.337204627371	1000
1	36337	27.345459274599	1000
1	36354	27.348664152729	1000
1	36383	27.359444371267	1000
1	36412	27.377263356458	1000
1	36427	27.39177022893	1000
1	36435	27.392271985505	1000
1	36454	27.40207478695	1000
1	36469	27.410567951815	1000
1	36483	27.423426452272	1000
1	36504	27.433270437085	1000
1	36512	27.433837291656	1000
1	36526	27.438296668053	1000
1	36539	27.442071369604	1000
1	36553	27.449323375669	1000
1	36573	27.456666269802	1000
1	36589	27.471174333414	1000
1	36603	27.49474539348	1000
1	36625	27.510477679969	1000
1	36663	27.540567428444	1000
1	36678	27.548241431488	1000
1	36691	27.554384494457	1000
1	36707	27.584439852878	1000
1	36720	27.589584041728	1000
1	36728	27.592029040166	1000
1	36774	27.614061880169	1000
1	36803	27.658576835135	1000
1	36854	27.678959802234	1000
1	36906	27.693327787792	1000
1	36936	27.708574121636	1000
1	36944	27.710379915889	1000
1	36975	27.721481231197	1000
1	36984	27.725470461825	1000
1	37017	27.739761480774	1000
1	37026	27.7438509302	1000
1	37039	27.744941660441	1000
1	37080	27.765878061243	1000
1	37107	27.791477115608	1000
1	37121	27.796519193306	1000
1	37129	27.796606959911	1000
1	37133	27.798096613819	1000
1	37147	27.801241262586	1000
1	37161	27.80731354846	1000
1	37191	27.821088554116	1000
1	37207	27.838261137331	1000
1	37221	27.857747296517	1000
1	37274	27.899660093398	1000
1	37296	27.917912858825	1000
1	37309	27.923115280382	1000
1	37359	27.933413715047	1000
1	37367	27.934521868397	1000
1	37391	27.977027743237	1000
1	37430	27.996452358727	1000
1	37452	28.003366954169	1000
1	37465	28.008963621714	1000
1	37486	28.015413507965	1000
1	37521	28.042280289215	1000
1	37550	28.049636235093	1000
1	37592	28.067903310579	1000
1	37654	28.080448777066	1000
1	37671	28.087249879672	1000
1	37701	28.116353192311	1000
1	37727	28.134620037682	1000
1	37741	28.141333552521	1000
1	37755	28.151993132621	1000
1	37794	28.168263318614	1000
1	37850	28.228500891137	1000
1	37858	28.228807291794	1000
1	37906	28.252178828659	1000
1	37921	28.272948726492	1000
1	37935	28.290520950827	1000
1	37961	28.302100111201	1000
1	38003	28.33264326176	1000
1	38016	28.338129722025	1000
1	38024	28.34168850078	1000
1	38043	28.351667683787	1000
1	38052	28.353669785915	1000
1	38071	28.360724290335	1000
1	38140	28.415708185329	1000
1	38160	28.424117550697	1000
1	38181	28.434283781098	1000
1	38202	28.440116180056	1000
1	38217	28.472079825197	1000
1	38230	28.485035813102	1000
1	38246	28.501532926954	1000
1	38254	28.504284038942	1000
1	38274	28.52421305724	1000
1	38282	28.526016029649	1000
1	38308	28.545626578783	1000
1	38348	28.583836186251	1000
1	38368	28.592150930569	1000
1	38399	28.603611487521	1000
1	38413	28.615407535146	1000
1	38441	28.653726505367	1000
1	38487	28.678706899085	1000
1	38500	28.685515569989	1000
1	38508	28.685932032645	1000
1	38528	28.699037670064	1000
1	38543	28.703979764447	1000
1	38596	28.746402242842	1000
1	38605	28.749663328419	1000
1	38638	28.777488722957	1000
1	38659	28.788732534844	1000
1	38667	28.789197652209	1000
1	38671	28.790846609408	1000
1	38675	28.791535499964	1000
1	38717	28.819782134494	1000
1	38730	28.824970646752	1000
1	38738	28.825027219005	1000
1	38764	28.834898223262	1000
1	38772	28.836078321756	1000
1	38786	28.840032152777	1000
1	38809	28.845689045446	1000
1	38826	28.85291808702	1000
1	38850	28.87037300502	1000
1	38858	28.871999181478	1000
1	38884	28.888966671599	1000
1	38899	28.902978327854	1000
1	38925	28.91013125309	1000
1	38940	28.918538084205	1000
1	38991	28.935791138022	1000
1	39007	28.945653100903	1000
1	39037	28.95545873889	1000
1	39078	28.981414939536	1000
1	39100	29.006826298868	1000
1	39108	29.010850747503	1000
1	39136	29.044953925256	1000
1	39150	29.064495106902	1000
1	39176	29.084649892104	1000
1	39185	29.088769810165	1000
1	39205	29.101350912435	1000
1	39236	29.145346020801	1000
1	39249	29.151665849883	1000
1	39257	29.153845221685	1000
1	39291	29.174995560178	1000
1	39299	29.177675843336	1000
1	39330	29.189379632184	1000
1	39353	29.200475971531	1000
1	39367	29.204893408448	1000
1	39380	29.209370116968	1000
1	39388	29.210243205067	1000
1	39407	29.218579195196	1000
1	39442	29.229933495805	1000
1	39451	29.234214141598	1000
1	39522	29.271737863395	1000
1	39544	29.286086654951	1000
1	39594	29.298151817275	1000
1	39602	29.29827639669	1000
1	39644	29.311866464494	1000
1	39653	29.312941437535	1000
1	39675	29.332847643527	1000
1	39688	29.340997950074	1000
1	39703	29.358343103484	1000
1	39711	29.361321630815	1000
1	39724	29.363263054536	1000
1	39756	29.377210874502	1000
1	39790	29.385586529835	1000
1	39807	29.410432881371	1000
1	39844	29.420782006402	1000
1	39859	29.428211144657	1000
1	39868	29.432091172468	1000
1	39882	29.435713317583	1000
1	39895	29.439583270429	1000
1	39914	29.446669765386	1000
1	39935	29.45509956157	1000
1	39952	29.465674412277	1000
1	39967	29.485757710728	1000
1	39990	29.51890705736	1000
1	40029	29.536746426477	1000
1	40044	29.552733823639	1000
1	40082	29.56920241758	1000
1	40091	29.57239573083	1000
1	40110	29.578366108108	1000
1	40223	29.633101179595	1000
1	40278	29.673920747299	1000
1	40292	29.692283154712	1000
1	40300	29.696324310473	1000
1	40313	29.696959576538	1000
1	40362	29.713479334822	1000
1	40389	29.726838084466	1000
1	40416	29.736435624506	1000
1	40442	29.742993424217	1000
1	40459	29.769713511552	1000
1	40473	29.790720823641	1000
1	40493	29.796498661413	1000
1	40507	29.803129058496	1000
1	40529	29.813151479798	1000
1	40559	29.820273494144	1000
1	40587	29.842003217659	1000
1	40595	29.845422283954	1000
1	40608	29.850443687191	1000
1	40633	29.855824123085	1000
1	40649	29.869529632396	1000
1	40663	29.878681219563	1000
1	40679	29.900983221627	1000
1	40692	29.905805237588	1000
1	40740	29.951731318781	1000
1	40773	29.971176572377	1000
1	40781	29.975033000612	1000
1	40808	29.993704576457	1000
1	40822	29.999824896695	1000
1	41038	30.000783776329	1000
1	41228	30.050465876258	1000
1	41250	30.053701969467	1000
1	41358	30.081390593733	1000
1	41408	30.091625211948	1000
1	41430	30.097623546558	1000
1	41509	30.11522619317	1000
1	41603	30.137205916592	1000
1	41625	30.141704121048	1000
1	41661	30.14947969716	1000
1	41725	30.162991868671	1000
1	41779	30.177363277693	1000
1	41801	30.181649227279	1000
1	41821	30.18281667063	1000
1	41843	30.188769984151	1000
1	41863	30.193842026515	1000
1	41869	30.194968708965	1000
1	41906	30.200963156434	1000
1	41950	30.211123119936	1000
1	42219	30.278437776102	1000
1	42280	30.295414537133	1000
1	42308	30.30023086582	1000
1	42339	30.306680671057	1000
1	42343	30.308189578315	1000
1	42433	30.327787278763	1000
1	42473	30.337798532945	1000
1	42513	30.34548957518	1000
1	42560	30.352766711861	1000
1	42566	30.355943008238	1000
1	42586	30.359782812911	1000
1	42612	30.364473914598	1000
1	42616	30.364495317893	1000
1	42654	30.373852029074	1000
1	42879	30.429009628172	1000
1	42899	30.433783472524	1000
1	43035	30.441577143351	1000
1	43463	30.467002676593	1000
1	43489	30.476179248284	1000
1	43510	30.481500184136	1000
1	43552	30.489241673598	1000
1	43611	30.506488218021	1000
1	43645	30.519563179388	1000
1	43692	30.531627629525	1000
1	43716	30.536821565003	1000
1	43782	30.560923123459	1000
1	43886	30.579959764955	1000
1	43910	30.589794954691	1000
1	43914	30.591483338419	1000
1	43963	30.602898399692	1000
1	43986	30.606750696669	1000
1	44095	30.651622883817	1000
[...]
38	108026	130.095744	1
38	108028	130.095744	2
38	108042	130.100096	1
38	108042	130.100096	0
38	108044	130.100096	1
38	108046	130.100096	2
38	108057	130.104448	1
38	108057	130.104448	0
38	108059	130.104448	1
38	108061	130.104448	2
39	95750	100.435200534404	1000
39	100336	110.435200503409	1000
39	104778	120.435200472735	1000
40	95750	100.435200534404	74.936520663027
40	100336	110.435200503409	83.001930066324
40	104778	120.435200472735	91.257524629399
41	95750	100.435200534404	2139
41	100336	110.435200503409	2275
41	104778	120.435200472735	2400
43	95749	100.435200534404	1008
43	100335	110.435200503409	1008
43	104777	120.435200472735	1008
44	95749	100.435200534404	1
44	100335	110.435200503409	2
44	104777	120.435200472735	3
50	2971	10.107210744638	40
50	24695	20.769247117219	40
50	42518	30.346081329044	40
50	64688	40.53587568365	40
50	69563	50.193564104848	40
50	76484	60.617159469519	40
50	82010	70.715120010078	40
50	82421	70.982799460977	80
50	86447	80.389104191912	40
50	86708	80.573793526294	80
50	91116	90.411446042592	40
50	91496	91.101028108931	80
50	95796	100.507088237784	80
50	95930	100.815481911181	40
50	96038	101.049551825388	80
50	100512	110.855155756231	40
50	100537	110.875187123336	80
50	100568	110.936143279854	80
50	103726	120.155878109159	40
50	105104	121.285767879011	80
50	105244	121.794176252219	80
52	2971	10.107210744638	0
52	24695	20.769247117219	0
52	42518	30.346081329044	0
52	64688	40.53587568365	0
52	69563	50.193564104848	0
52	76484	60.617159469519	0
52	82010	70.715120010078	0
52	82421	70.982799460977	0
52	86447	80.389104191912	0
52	86708	80.573793526294	0
52	91116	90.411446042592	0
52	91496	91.101028108931	0
52	95796	100.507088237784	0
52	95930	100.815481911181	0
52	96038	101.049551825388	0
52	100512	110.855155756231	0
52	100537	110.875187123336	0
52	100568	110.936143279854	0
52	103726	120.155878109159	0
52	105104	121.285767879011	0
52	105244	121.794176252219	0
53	0	0	0
54	76953	60.922116695221	80
54	81423	70.443440628802	40
54	82390	70.929248114375	80
54	86638	80.435440597145	40
54	91223	90.435440565654	40
54	95747	100.435200534404	1068
54	95868	100.648211356601	40
54	96260	101.773285977424	80
54	100333	110.435200503409	1068
54	100391	110.556658815269	40
54	100743	111.427700048895	80
54	104775	120.435200472735	1068
54	104943	120.812534374776	40
55	2972	10.107210744638	60
55	24696	20.769247117219	60
55	42519	30.346081329044	60
55	64689	40.53587568365	60
55	69564	50.193564104848	60
55	76485	60.617159469519	60
55	82011	70.715120010078	60
55	82422	70.982799460977	100
55	86448	80.389104191912	60
55	86709	80.573793526294	100
55	91117	90.411446042592	60
55	91497	91.101028108931	100
55	95797	100.507088237784	100
55	95931	100.815481911181	60
55	96039	101.049551825388	100
55	100513	110.855155756231	60
55	100538	110.875187123336	100
55	100569	110.936143279854	100
55	103727	120.155878109159	60
55	105105	121.285767879011	100
55	105245	121.794176252219	100
56	2972	10.107210744638	40
56	24696	20.769247117219	40
56	42519	30.346081329044	40
56	64689	40.53587568365	40
56	69564	50.193564104848	40
56	76485	60.617159469519	40
56	82011	70.715120010078	40
56	82422	70.982799460977	80
56	86448	80.389104191912	40
56	86709	80.573793526294	80
56	91117	90.411446042592	40
56	91497	91.101028108931	80
56	95797	100.507088237784	80
56	95931	100.815481911181	40
56	96039	101.049551825388	80
56	100513	110.855155756231	40
56	100538	110.875187123336	80
56	100569	110.936143279854	80
56	103727	120.155878109159	40
56	105105	121.285767879011	80
56	105245	121.794176252219	80
57	76258	60.454640660615	100
57	76309	60.498140665619	100
57	76321	60.508557234774	100
57	76345	60.523455336293	100
57	76358	60.525442245246	100
57	76373	60.536770591306	100
57	76383	60.537308834052	100
57	76401	60.567893808867	100
57	76411	60.570051497699	100
57	76422	60.579814904956	100
57	76434	60.590500152291	100
57	76444	60.598694651682	100
57	76459	60.603888226019	100
57	76470	60.608869706309	100
57	76480	60.610473585804	100
57	76511	60.62157996929	100
57	76542	60.626899204383	100
57	76569	60.640764772121	100
57	76579	60.645733931711	100
57	76589	60.648188096374	100
57	76608	60.660640494063	100
57	76625	60.675004513984	100
57	76635	60.676976430507	100
57	76659	60.687114111141	100
57	76669	60.689351963116	100
57	76679	60.692111343374	100
57	76700	60.725375879212	100
57	76713	60.733266192585	100
57	76730	60.742147256689	100
57	76745	60.757398857522	100
57	76755	60.759783121304	100
57	76776	60.799387864189	100
57	76797	60.813407410942	100
57	76814	60.837203749454	100
57	76824	60.838611920591	100
57	76837	60.8403586815	100
57	76859	60.851650469869	100
57	76880	60.893404906667	100
57	76891	60.900186828601	100
57	76902	60.908049762486	100
57	76922	60.91418047015	100
57	76932	60.916084821548	100
57	76942	60.918009289747	100
57	76953	60.922116695221	100
57	76978	60.940536841884	100
57	76995	60.966772398962	100
57	77016	61.000278904726	100
57	81423	70.443440628802	60
57	81625	70.453440628771	100
57	81667	70.462368574308	100
57	81683	70.471124337574	100
57	81694	70.474590876415	100
57	81704	70.47706833718	100
57	81714	70.480240927801	100
57	81732	70.501445428426	100
57	81743	70.513934798223	100
57	81759	70.518924058782	100
57	81769	70.520297073889	100
57	81794	70.530852439677	100
57	81807	70.537990945465	100
57	81818	70.542234195224	100
57	81831	70.546193225356	100
57	81842	70.551048517259	100
57	81862	70.553012910772	100
57	81872	70.555515342177	100
57	81899	70.570111307519	100
57	81909	70.575323280833	100
57	81940	70.601960630725	100
57	81957	70.636309036746	100
57	81971	70.662899108746	100
57	81987	70.667398728791	100
57	82001	70.675934059413	100
57	82032	70.716395234196	100
57	82051	70.7243510717	100
57	82063	70.729319901836	100
57	82077	70.736432815112	100
57	82087	70.737193273287	100
57	82106	70.759260845207	100
57	82123	70.77378136341	100
57	82136	70.782537961141	100
57	82147	70.784715994948	100
57	82160	70.787451853024	100
57	82196	70.821446699428	100
57	82206	70.822493652449	100
57	82216	70.823650759742	100
57	82226	70.829515516836	100
57	82236	70.830273348449	100
57	82251	70.832996781052	100
57	82271	70.844764009847	100
57	82288	70.855464916207	100
57	82305	70.865672739187	100
57	82325	70.887478823202	100
57	82338	70.895328543018	100
57	82352	70.897683445227	100
57	82366	70.90115576176	100
57	82379	70.917196964413	100
57	82390	70.929248114375	100
57	86638	80.435440597145	60
57	91223	90.435440565654	60
57	95747	100.435200534404	1088
57	95868	100.648211356601	60
57	96260	101.773285977424	100
57	100333	110.435200503409	1088
57	100391	110.556658815269	60
57	100743	111.427700048895	100
57	104775	120.435200472735	1088
57	104943	120.812534374776	60
58	76258	60.454640660615	100
58	76309	60.498140665619	100
58	76321	60.508557234774	100
58	76345	60.523455336293	100
58	76358	60.525442245246	100
58	76373	60.536770591306	100
58	76383	60.537308834052	100
58	76401	60.567893808867	100
58	76411	60.570051497699	100
58	76422	60.579814904956	100
58	76434	60.590500152291	100
58	76444	60.598694651682	100
58	76459	60.603888226019	100
58	76470	60.608869706309	100
58	76480	60.610473585804	100
58	76511	60.62157996929	100
58	76542	60.626899204383	100
58	76569	60.640764772121	100
58	76579	60.645733931711	100
58	76589	60.648188096374	100
58	76608	60.660640494063	100
58	76625	60.675004513984	100
58	76635	60.676976430507	100
58	76659	60.687114111141	100
58	76669	60.689351963116	100
58	76679	60.692111343374	100
58	76700	60.725375879212	100
58	76713	60.733266192585	100
58	76730	60.742147256689	100
58	76745	60.757398857522	100
58	76755	60.759783121304	100
58	76776	60.799387864189	100
58	76797	60.813407410942	100
58	76814	60.837203749454	100
58	76824	60.838611920591	100
58	76837	60.8403586815	100
58	76859	60.851650469869	100
58	76880	60.893404906667	100
58	76891	60.900186828601	100
58	76902	60.908049762486	100
58	76922	60.91418047015	100
58	76932	60.916084821548	100
58	76942	60.918009289747	100
58	76978	60.940536841884	100
58	76995	60.966772398962	100
58	77016	61.000278904726	100
58	81625	70.453440628771	100
58	81667	70.462368574308	100
58	81683	70.471124337574	100
58	81694	70.474590876415	100
58	81704	70.47706833718	100
58	81714	70.480240927801	100
58	81732	70.501445428426	100
58	81743	70.513934798223	100
58	81759	70.518924058782	100
58	81769	70.520297073889	100
58	81794	70.530852439677	100
58	81807	70.537990945465	100
58	81818	70.542234195224	100
58	81831	70.546193225356	100
58	81842	70.551048517259	100
58	81862	70.553012910772	100
58	81872	70.555515342177	100
58	81899	70.570111307519	100
58	81909	70.575323280833	100
58	81940	70.601960630725	100
58	81957	70.636309036746	100
58	81971	70.662899108746	100
58	81987	70.667398728791	100
58	82001	70.675934059413	100
58	82032	70.716395234196	100
58	82051	70.7243510717	100
58	82063	70.729319901836	100
58	82077	70.736432815112	100
58	82087	70.737193273287	100
58	82106	70.759260845207	100
58	82123	70.77378136341	100
58	82136	70.782537961141	100
58	82147	70.784715994948	100
58	82160	70.787451853024	100
58	82196	70.821446699428	100
58	82206	70.822493652449	100
58	82216	70.823650759742	100
58	82226	70.829515516836	100
58	82236	70.830273348449	100
58	82251	70.832996781052	100
58	82271	70.844764009847	100
58	82288	70.855464916207	100
58	82305	70.865672739187	100
58	82325	70.887478823202	100
58	82338	70.895328543018	100
58	82352	70.897683445227	100
58	82366	70.90115576176	100
58	82379	70.917196964413	100
59	0	0	0
59	0	0	2
59	2972	10.107210744638	3
59	2976	10.107450744638	2
59	24696	20.769247117219	3
59	24700	20.769487117219	2
59	42519	30.346081329044	3
59	42523	30.346321329044	2
59	64689	40.53587568365	3
59	64693	40.53611568365	2
59	69564	50.193564104848	3
59	69568	50.193804104848	2
59	76485	60.617159469519	3
59	76489	60.617399469519	2
59	82011	70.715120010078	3
59	82015	70.715360010078	2
59	82422	70.982799460977	3
59	82426	70.983199460977	2
59	86448	80.389104191912	3
59	86452	80.389344191912	2
59	86709	80.573793526294	3
59	86713	80.574193526294	2
59	91117	90.411446042592	3
59	91121	90.411686042592	2
59	91497	91.101028108931	3
59	91501	91.101428108931	2
59	95797	100.507088237784	3
59	95801	100.507488237784	2
59	95931	100.815481911181	3
59	95935	100.815721911181	2
59	96039	101.049551825388	3
59	96043	101.049951825388	2
59	100513	110.855155756231	3
59	100517	110.855395756231	2
59	100538	110.875187123336	3
59	100542	110.875587123336	2
59	100569	110.936143279854	3
59	100573	110.936543279854	2
59	103727	120.155878109159	3
59	103731	120.156118109159	2
59	105105	121.285767879011	3
59	105109	121.286167879011	2
59	105245	121.794176252219	3
59	105249	121.794576252219	2
60	0	0	1
60	2972	10.107210744638	0
60	2976	10.107450744638	1
60	24696	20.769247117219	0
60	24700	20.769487117219	1
60	42519	30.346081329044	0
60	42523	30.346321329044	1
60	64689	40.53587568365	0
60	64693	40.53611568365	1
60	69564	50.193564104848	0
60	69568	50.193804104848	1
60	74162	60.000000662065	3
60	76257	60.454640660615	1
60	76305	60.497740665619	3
60	76308	60.498140665619	1
60	76317	60.508157234774	3
60	76320	60.508557234774	1
60	76341	60.523055336293	3
60	76344	60.523455336293	1
60	76351	60.525042245246	3
60	76357	60.525442245246	1
60	76369	60.536370591306	3
60	76372	60.536770591306	1
60	76379	60.536908834052	3
60	76382	60.537308834052	1
60	76397	60.567493808867	3
60	76400	60.567893808867	1
60	76407	60.569651497699	3
60	76410	60.570051497699	1
60	76418	60.579414904956	3
60	76421	60.579814904956	1
60	76430	60.590100152291	3
60	76433	60.590500152291	1
60	76440	60.598294651682	3
60	76443	60.598694651682	1
60	76455	60.603488226019	3
60	76458	60.603888226019	1
60	76465	60.608469706309	3
60	76469	60.608869706309	1
60	76476	60.610073585804	3
60	76479	60.610473585804	1
60	76485	60.617159469519	0
60	76489	60.617399469519	1
60	76507	60.62117996929	3
60	76510	60.62157996929	1
60	76520	60.625699204385	3
60	76541	60.626899204383	1
60	76565	60.640364772121	3
60	76568	60.640764772121	1
60	76575	60.645333931711	3
60	76578	60.645733931711	1
60	76585	60.647788096374	3
60	76588	60.648188096374	1
60	76604	60.660240494063	3
60	76607	60.660640494063	1
60	76621	60.674604513984	3
60	76624	60.675004513984	1
60	76631	60.676576430507	3
60	76634	60.676976430507	1
60	76645	60.686314111142	3
60	76658	60.687114111141	1
60	76665	60.688951963116	3
60	76668	60.689351963116	1
60	76675	60.691711343374	3
60	76678	60.692111343374	1
60	76696	60.724975879212	3
60	76699	60.725375879212	1
60	76709	60.732866192585	3
60	76712	60.733266192585	1
60	76726	60.741747256689	3
60	76729	60.742147256689	1
60	76741	60.756998857522	3
60	76744	60.757398857522	1
60	76751	60.759383121304	3
60	76754	60.759783121304	1
60	76772	60.798987864189	3
60	76775	60.799387864189	1
60	76793	60.813007410942	3
60	76796	60.813407410942	1
60	76810	60.836803749454	3
60	76813	60.837203749454	1
60	76820	60.838211920591	3
60	76823	60.838611920591	1
60	76833	60.8399586815	3
60	76836	60.8403586815	1
60	76846	60.850850469871	3
60	76858	60.851650469869	1
60	76876	60.893004906667	3
60	76879	60.893404906667	1
60	76886	60.899786828601	3
60	76890	60.900186828601	1
60	76898	60.907649762486	3
60	76901	60.908049762486	1
60	76918	60.91378047015	3
60	76921	60.91418047015	1
60	76928	60.915684821548	3
60	76931	60.916084821548	1
60	76938	60.917609289747	3
60	76941	60.918009289747	1
60	76949	60.921716695221	3
60	76952	60.922116695221	1
60	76974	60.940136841884	3
60	76977	60.940536841884	1
60	76991	60.966372398962	3
60	76994	60.966772398962	1
60	77002	60.999478904727	3
60	77015	61.000278904726	1
60	79627	70.000000630211	3
60	81421	70.443440628802	2
60	81422	70.443440628802	3
60	81624	70.453440628771	1
60	81662	70.461968574308	3
60	81666	70.462368574308	1
60	81679	70.470724337574	3
60	81682	70.471124337574	1
60	81690	70.474190876415	3
60	81693	70.474590876415	1
60	81700	70.47666833718	3
60	81703	70.47706833718	1
60	81710	70.479840927801	3
60	81713	70.480240927801	1
60	81728	70.501045428426	3
60	81731	70.501445428426	1
60	81739	70.513534798223	3
60	81742	70.513934798223	1
60	81755	70.518524058782	3
60	81758	70.518924058782	1
60	81765	70.519897073889	3
60	81768	70.520297073889	1
60	81790	70.530452439677	3
60	81793	70.530852439677	1
60	81803	70.537590945465	3
60	81806	70.537990945465	1
60	81814	70.541834195224	3
60	81817	70.542234195224	1
60	81827	70.545793225356	3
60	81830	70.546193225356	1
60	81838	70.550648517259	3
60	81841	70.551048517259	1
60	81848	70.552212910773	3
60	81861	70.553012910772	1
60	81868	70.555115342177	3
60	81871	70.555515342177	1
60	81895	70.569711307519	3
60	81898	70.570111307519	1
60	81905	70.574923280833	3
60	81908	70.575323280833	1
60	81936	70.601560630725	3
60	81939	70.601960630725	1
60	81953	70.635909036746	3
60	81956	70.636309036746	1
60	81967	70.662499108746	3
60	81970	70.662899108746	1
60	81983	70.666998728791	3
60	81986	70.667398728791	1
60	81997	70.675534059413	3
60	82000	70.675934059413	1
60	82011	70.715120010078	0
60	82015	70.715360010078	1
60	82028	70.715995234196	3
60	82031	70.716395234196	1
60	82047	70.7239510717	3
60	82050	70.7243510717	1
60	82059	70.728919901836	3
60	82062	70.729319901836	1
60	82073	70.736032815112	3
60	82076	70.736432815112	1
60	82083	70.736793273287	3
60	82086	70.737193273287	1
60	82102	70.758860845207	3
60	82105	70.759260845207	1
60	82119	70.77338136341	3
60	82122	70.77378136341	1
60	82132	70.782137961141	3
60	82135	70.782537961141	1
60	82143	70.784315994948	3
60	82146	70.784715994948	1
60	82153	70.787051853024	3
60	82159	70.787451853024	1
60	82192	70.821046699428	3
60	82195	70.821446699428	1
60	82202	70.822093652449	3
60	82205	70.822493652449	1
60	82212	70.823250759742	3
60	82215	70.823650759742	1
60	82222	70.829115516836	3
60	82225	70.829515516836	1
60	82232	70.829873348449	3
60	82235	70.830273348449	1
60	82247	70.832596781052	3
60	82250	70.832996781052	1
60	82264	70.844364009847	3
60	82270	70.844764009847	1
60	82284	70.855064916207	3
60	82287	70.855464916207	1
60	82300	70.865272739187	3
60	82304	70.865672739187	1
60	82321	70.887078823202	3
60	82324	70.887478823202	1
60	82334	70.894928543018	3
60	82337	70.895328543018	1
60	82347	70.897283445227	3
60	82351	70.897683445227	1
60	82362	70.90075576176	3
60	82365	70.90115576176	1
60	82375	70.916796964413	3
60	82378	70.917196964413	1
60	82386	70.928848114375	3
60	82389	70.929248114375	1
60	82422	70.982799460977	0
60	82426	70.983199460977	1
60	84975	80.00000059852	3
60	86448	80.389104191912	2
60	86448	80.389104191912	0
60	86452	80.389344191912	2
60	86461	80.391680597282	3
60	86637	80.435440597145	1
60	86709	80.573793526294	0
60	86713	80.574193526294	1
60	89530	90.000000567021	3
60	91117	90.411446042592	2
60	91117	90.411446042592	0
60	91121	90.411686042592	2
60	91130	90.413440565723	3
60	91222	90.435440565654	1
60	91497	91.101028108931	0
60	91501	91.101428108931	1
60	94141	100.000000535746	3
60	95746	100.435200534404	1
60	95797	100.507088237784	0
60	95801	100.507488237784	1
60	95864	100.647971356601	3
60	95867	100.648211356601	1
60	95931	100.815481911181	0
60	95935	100.815721911181	1
60	96039	101.049551825388	0
60	96043	101.049951825388	1
60	96256	101.772885977424	3
60	96259	101.773285977424	1
60	98655	110.000000504738	3
60	100332	110.435200503409	1
60	100387	110.556418815269	3
60	100390	110.556658815269	1
60	100513	110.855155756231	0
60	100517	110.855395756231	1
60	100538	110.875187123336	0
60	100542	110.875587123336	1
60	100569	110.936143279854	0
60	100573	110.936543279854	1
60	100739	111.427300048895	3
60	100742	111.427700048895	1
60	103147	120.000000474049	3
60	103727	120.155878109159	2
60	103727	120.155878109159	0
60	103731	120.156118109159	2
60	103740	120.156672473571	3
60	104774	120.435200472735	1
60	104939	120.812294374776	3
60	104942	120.812534374776	1
60	105105	121.285767879011	0
60	105109	121.286167879011	1
60	105245	121.794176252219	0
60	105249	121.794576252219	1
60	107688	130.000000443745	3
61	2972	10.107210744638	1
61	2973	10.107210744638	2
61	2976	10.107450744638	1
61	2976	10.107450744638	0
61	24696	20.769247117219	1
61	24697	20.769247117219	2
61	24700	20.769487117219	1
61	24700	20.769487117219	0
61	42519	30.346081329044	1
61	42520	30.346081329044	2
61	42523	30.346321329044	1
61	42523	30.346321329044	0
61	64689	40.53587568365	1
61	64690	40.53587568365	2
61	64693	40.53611568365	1
61	64693	40.53611568365	0
61	69564	50.193564104848	1
61	69565	50.193564104848	2
61	69568	50.193804104848	1
61	69568	50.193804104848	0
61	76485	60.617159469519	1
61	76486	60.617159469519	2
61	76489	60.617399469519	1
61	76489	60.617399469519	0
61	82011	70.715120010078	1
61	82012	70.715120010078	2
61	82015	70.715360010078	1
61	82015	70.715360010078	0
61	82422	70.982799460977	1
61	82423	70.982799460977	2
61	82426	70.983199460977	1
61	82426	70.983199460977	0
61	86448	80.389104191912	1
61	86449	80.389104191912	2
61	86452	80.389344191912	1
61	86452	80.389344191912	0
61	86709	80.573793526294	1
61	86710	80.573793526294	2
61	86713	80.574193526294	1
61	86713	80.574193526294	0
61	91117	90.411446042592	1
61	91118	90.411446042592	2
61	91121	90.411686042592	1
61	91121	90.411686042592	0
61	91497	91.101028108931	1
61	91498	91.101028108931	2
61	91501	91.101428108931	1
61	91501	91.101428108931	0
61	95797	100.507088237784	1
61	95798	100.507088237784	2
61	95801	100.507488237784	1
61	95801	100.507488237784	0
61	95931	100.815481911181	1
61	95932	100.815481911181	2
61	95935	100.815721911181	1
61	95935	100.815721911181	0
61	96039	101.049551825388	1
61	96040	101.049551825388	2
61	96043	101.049951825388	1
61	96043	101.049951825388	0
61	100513	110.855155756231	1
61	100514	110.855155756231	2
61	100517	110.855395756231	1
61	100517	110.855395756231	0
61	100538	110.875187123336	1
61	100539	110.875187123336	2
61	100542	110.875587123336	1
61	100542	110.875587123336	0
61	100569	110.936143279854	1
61	100570	110.936143279854	2
61	100573	110.936543279854	1
61	100573	110.936543279854	0
61	103727	120.155878109159	1
61	103728	120.155878109159	2
61	103731	120.156118109159	1
61	103731	120.156118109159	0
61	105105	121.285767879011	1
61	105106	121.285767879011	2
61	105109	121.286167879011	1
61	105109	121.286167879011	0
61	105245	121.794176252219	1
61	105246	121.794176252219	2
61	105249	121.794576252219	1
61	105249	121.794576252219	0
